
     RDKit          3D

 61 62  0  0  0  0  0  0  0  0999 V2000
   16.1860    1.0040    5.9600 N   0  0  0  0  0  0  0  0  0  0  0  0
   16.0720   -0.3850    5.5100 C   0  0  0  0  0  0  0  0  0  0  0  0
   14.8770   -0.4750    4.5680 C   0  0  0  0  0  0  0  0  0  0  0  0
   14.0190    0.4010    4.5920 O   0  0  0  0  0  0  0  0  0  0  0  0
   15.8860   -1.3560    6.6790 C   0  0  0  0  0  0  0  0  0  0  0  0
   17.1360   -1.4920    7.5580 C   0  0  0  0  0  0  0  0  0  0  0  0
   18.2680   -1.5520    7.0290 O   0  0  0  0  0  0  0  0  0  0  0  0
   16.9690   -1.5970    8.7890 O   0  0  0  0  0  0  0  0  0  0  0  0
   14.7720   -1.5470    3.7690 N   0  0  0  0  0  0  0  0  0  0  0  0
   13.5720   -1.7080    2.9410 C   0  0  0  0  0  0  0  0  0  0  0  0
   12.3170   -1.8840    3.7890 C   0  0  0  0  0  0  0  0  0  0  0  0
   12.3460   -2.4920    4.8590 O   0  0  0  0  0  0  0  0  0  0  0  0
   13.8510   -2.9810    2.1230 C   0  0  0  0  0  0  0  0  0  0  0  0
   15.3440   -3.1780    2.1720 C   0  0  0  0  0  0  0  0  0  0  0  0
   15.7560   -2.6260    3.5420 C   0  0  0  0  0  0  0  0  0  0  0  0
   11.2100   -1.3600    3.2880 N   0  0  0  0  0  0  0  0  0  0  0  0
    9.8930   -1.5250    3.9260 C   0  0  0  0  0  0  0  0  0  0  0  0
    9.1290   -2.5770    3.1320 C   0  0  0  0  0  0  0  0  0  0  0  0
    8.6950   -2.3200    2.0070 O   0  0  0  0  0  0  0  0  0  0  0  0
    9.0950   -0.2270    3.9470 C   0  0  0  0  0  0  0  0  0  0  0  0
    9.8090    0.9150    4.5960 C   0  0  0  0  0  0  0  0  0  0  0  0
   10.9290    1.4980    4.0420 N   0  0  0  0  0  0  0  0  0  0  0  0
    9.5360    1.6200    5.7200 C   0  0  0  0  0  0  0  0  0  0  0  0
   11.3400    2.4840    4.8190 C   0  0  0  0  0  0  0  0  0  0  0  0
   10.5090    2.5830    5.8410 N   0  0  0  0  0  0  0  0  0  0  0  0
    8.8840   -3.7220    3.7440 N   0  0  0  0  0  0  0  0  0  0  0  0
    8.4100   -4.8840    3.0090 C   0  0  0  0  0  0  0  0  0  0  0  0
    6.9780   -5.1830    3.4180 C   0  0  0  0  0  0  0  0  0  0  0  0
    6.7140   -5.3480    4.6170 O   0  0  0  0  0  0  0  0  0  0  0  0
    9.2860   -6.0880    3.3550 C   0  0  0  0  0  0  0  0  0  0  0  0
   10.6320   -5.7060    3.5720 O   0  0  0  0  0  0  0  0  0  0  0  0
    6.0730   -5.3170    2.4360 N   0  0  0  0  0  0  0  0  0  0  0  0
    4.7190   -5.7950    2.7590 C   0  0  0  0  0  0  0  0  0  0  0  0
    4.2470   -6.7600    1.6770 C   0  0  0  0  0  0  0  0  0  0  0  0
    4.4900   -6.5340    0.4800 O   0  0  0  0  0  0  0  0  0  0  0  0
    3.7320   -4.6130    2.8710 C   0  0  0  0  0  0  0  0  0  0  0  0
    2.3890   -5.0010    3.4990 C   0  0  0  0  0  0  0  0  0  0  0  0
    1.5110   -3.7980    3.8110 C   0  0  0  0  0  0  0  0  0  0  0  0
    1.7590   -2.7080    3.2460 O   0  0  0  0  0  0  0  0  0  0  0  0
    0.5610   -3.9570    4.6090 O   0  0  0  0  0  0  0  0  0  0  0  0
    3.5780   -7.8340    2.0880 N   0  0  0  0  0  0  0  0  0  0  0  0
    3.1450   -8.8850    1.1680 C   0  0  0  0  0  0  0  0  0  0  0  0
    1.7140   -9.2990    1.4890 C   0  0  0  0  0  0  0  0  0  0  0  0
    1.4120   -9.5770    2.6580 O   0  0  0  0  0  0  0  0  0  0  0  0
    4.0750  -10.1090    1.2850 C   0  0  0  0  0  0  0  0  0  0  0  0
    5.4030   -9.7190    0.9280 O   0  0  0  0  0  0  0  0  0  0  0  0
    3.5810  -11.2210    0.3410 C   0  0  0  0  0  0  0  0  0  0  0  0
    0.8360   -9.2810    0.4850 N   0  0  0  0  0  0  0  0  0  0  0  0
   -0.5250   -9.7830    0.6180 C   0  0  0  0  0  0  0  0  0  0  0  0
   -0.5660  -11.2610    0.2710 C   0  0  0  0  0  0  0  0  0  0  0  0
    0.0040  -11.6940   -0.7510 O   0  0  0  0  0  0  0  0  0  0  0  0
   -1.4990   -8.9850   -0.2610 C   0  0  0  0  0  0  0  0  0  0  0  0
   -1.2570  -12.0260    1.1230 N   0  0  0  0  0  0  0  0  0  0  0  0
   -1.3400  -13.4650    1.0840 C   0  0  0  0  0  0  0  0  0  0  0  0
   -2.7900  -13.9310    1.2880 C   0  0  0  0  0  0  0  0  0  0  0  0
   -3.7020  -13.2140    1.7580 O   0  0  0  0  0  0  0  0  0  0  0  0
   -0.4960  -14.0640    2.2180 C   0  0  0  0  0  0  0  0  0  0  0  0
    1.0150  -13.9800    2.1050 C   0  0  0  0  0  0  0  0  0  0  0  0
    1.6240  -13.9690    3.4660 C   0  0  0  0  0  0  0  0  0  0  0  0
    1.5400  -15.1620    1.3670 C   0  0  0  0  0  0  0  0  0  0  0  0
   -3.0200  -15.1010    1.0260 O   0  0  0  0  0  0  0  0  0  0  0  0
  1  2  1  0
  2  3  1  0
  2  5  1  0
  3  4  2  0
  5  6  1  0
  6  7  2  0
  6  8  1  0
  9 10  1  0
  9 15  1  0
 10 11  1  0
 10 13  1  0
 11 12  2  0
 13 14  1  0
 14 15  1  0
 16 17  1  0
 17 18  1  0
 17 20  1  0
 18 19  2  0
 20 21  1  0
 21 22  1  0
 21 23  2  0
 22 24  2  0
 23 25  1  0
 24 25  1  0
 26 27  1  0
 27 28  1  0
 27 30  1  0
 28 29  2  0
 30 31  1  0
 32 33  1  0
 33 34  1  0
 33 36  1  0
 34 35  2  0
 36 37  1  0
 37 38  1  0
 38 39  2  0
 38 40  1  0
 41 42  1  0
 42 43  1  0
 42 45  1  0
 43 44  2  0
 45 46  1  0
 45 47  1  0
 48 49  1  0
 49 50  1  0
 49 52  1  0
 50 51  2  0
 53 54  1  0
 54 55  1  0
 54 57  1  0
 55 56  2  0
 55 61  1  0
 57 58  1  0
 58 59  1  0
 58 60  1  0
  3  9  1  0
 11 16  1  0
 18 26  1  0
 28 32  1  0
 34 41  1  0
 43 48  1  0
 50 53  1  0
M  CHG  1  22   1
M  END
$$$$
