
     RDKit          3D

 36 35  0  0  0  0  0  0  0  0999 V2000
  -22.4480   -2.4240   19.0840 C   0  0  0  0  0  0  0  0  0  0  0  0
  -23.1400   -3.2710   18.0120 C   0  0  0  0  0  0  0  0  0  0  0  0
  -24.4950   -3.7440   18.5490 C   0  0  0  0  0  0  0  0  0  0  0  0
  -25.6030   -3.4400   17.5360 C   0  0  0  0  0  0  0  0  0  0  0  0
  -26.7220   -4.4810   17.6180 C   0  0  0  0  0  0  0  0  0  0  0  0
  -26.8120   -5.2410   16.2950 C   0  0  0  0  0  0  0  0  0  0  0  0
  -28.1100   -6.0470   16.2160 C   0  0  0  0  0  0  0  0  0  0  0  0
  -27.9110   -7.2530   15.2920 C   0  0  0  0  0  0  0  0  0  0  0  0
  -28.0120   -8.5210   16.1420 C   0  0  0  0  0  0  0  0  0  0  0  0
  -28.2300   -9.7690   15.2900 C   0  0  0  0  0  0  0  0  0  0  0  0
  -27.5620  -10.9760   15.9610 C   0  0  0  0  0  0  0  0  0  0  0  0
  -28.5850  -12.0360   16.3600 C   0  0  0  0  0  0  0  0  0  0  0  0
  -27.9190  -13.4060   16.2800 C   0  0  0  0  0  0  0  0  0  0  0  0
  -28.9680  -14.5060   16.1640 C   0  0  0  0  0  0  0  0  0  0  0  0
  -28.8210  -15.2480   14.8320 C   0  0  0  0  0  0  0  0  0  0  0  0
  -29.8570  -16.3710   14.7470 C   0  0  0  0  0  0  0  0  0  0  0  0
  -30.3810  -16.5520   13.4500 O   0  0  0  0  0  0  0  0  0  0  0  0
  -30.9410  -17.8220   13.1680 C   0  0  0  0  0  0  0  0  0  0  0  0
  -30.9300  -18.7070   13.9640 O   0  0  0  0  0  0  0  0  0  0  0  0
  -31.5380  -18.1100   11.7940 C   0  0  0  0  0  0  0  0  0  0  0  0
  -32.9440  -18.7130   11.8580 C   0  0  0  0  0  0  0  0  0  0  0  0
  -32.9850  -19.9340   10.9460 C   0  0  0  0  0  0  0  0  0  0  0  0
  -34.3810  -20.1080   10.3600 C   0  0  0  0  0  0  0  0  0  0  0  0
  -34.2560  -20.9520    9.0880 C   0  0  0  0  0  0  0  0  0  0  0  0
  -35.5150  -20.8230    8.2310 C   0  0  0  0  0  0  0  0  0  0  0  0
  -35.2740  -21.5340    6.8970 C   0  0  0  0  0  0  0  0  0  0  0  0
  -35.1410  -20.5420    5.7420 C   0  0  0  0  0  0  0  0  0  0  0  0
  -34.0740  -21.0520    4.7770 C   0  0  0  0  0  0  0  0  0  0  0  0
  -32.8070  -20.2150    4.9070 C   0  0  0  0  0  0  0  0  0  0  0  0
  -31.6480  -21.0720    5.4040 C   0  0  0  0  0  0  0  0  0  0  0  0
  -30.3170  -20.3420    5.2040 C   0  0  0  0  0  0  0  0  0  0  0  0
  -29.1860  -21.3680    5.0840 C   0  0  0  0  0  0  0  0  0  0  0  0
  -27.8440  -20.7360    5.4700 C   0  0  0  0  0  0  0  0  0  0  0  0
  -20.9250   -2.6250   19.1260 C   0  0  0  0  0  0  0  0  0  0  0  0
  -20.4850   -2.6930   20.5920 C   0  0  0  0  0  0  0  0  0  0  0  0
  -19.0460   -2.2230   20.7570 C   0  0  0  0  0  0  0  0  0  0  0  0
 26 25  1  0
 26 27  1  0
 25 24  1  0
 27 28  1  0
 24 23  1  0
 28 29  1  0
 23 22  1  0
 29 30  1  0
 22 21  1  0
 30 31  1  0
 31 32  1  0
 21 20  1  0
 32 33  1  0
 20 18  1  0
 19 18  2  0
 18 17  1  0
 17 16  1  0
 16 15  1  0
 15 14  1  0
 14 13  1  0
 13 12  1  0
 12 11  1  0
 11 10  1  0
 10  9  1  0
  9  8  1  0
  8  7  1  0
  7  6  1  0
  6  5  1  0
  5  4  1  0
  4  3  1  0
  3  2  1  0
  2  1  1  0
  1 34  1  0
 34 35  1  0
 35 36  1  0
M  END
$$$$
