
     RDKit          3D

 70 73  0  0  0  0  0  0  0  0999 V2000
   37.4060   31.6160   15.7500 N   0  0  0  0  0  0  0  0  0  0  0  0
   36.9960   32.3760   14.5480 C   0  0  0  0  0  0  0  0  0  0  0  0
   36.0000   33.5080   14.8480 C   0  0  0  0  0  0  0  0  0  0  0  0
   35.4700   34.0930   13.9150 O   0  0  0  0  0  0  0  0  0  0  0  0
   38.3370   32.8630   13.9830 C   0  0  0  0  0  0  0  0  0  0  0  0
   39.3360   32.7330   15.0900 C   0  0  0  0  0  0  0  0  0  0  0  0
   38.8570   31.6360   16.0100 C   0  0  0  0  0  0  0  0  0  0  0  0
   35.8040   33.8590   16.1040 N   0  0  0  0  0  0  0  0  0  0  0  0
   34.8720   34.9080   16.4980 C   0  0  0  0  0  0  0  0  0  0  0  0
   33.5530   34.3680   17.0570 C   0  0  0  0  0  0  0  0  0  0  0  0
   32.7570   35.1540   17.5260 O   0  0  0  0  0  0  0  0  0  0  0  0
   35.5310   35.8460   17.5170 C   0  0  0  0  0  0  0  0  0  0  0  0
   36.6430   36.7300   16.9650 C   0  0  0  0  0  0  0  0  0  0  0  0
   36.5880   37.1340   15.7580 O   0  0  0  0  0  0  0  0  0  0  0  0
   37.5430   37.0580   17.7590 O   0  0  0  0  0  0  0  0  0  0  0  0
   33.3500   33.0560   16.9790 N   0  0  0  0  0  0  0  0  0  0  0  0
   32.1480   32.4600   17.5160 C   0  0  0  0  0  0  0  0  0  0  0  0
   31.5470   31.5440   16.4530 C   0  0  0  0  0  0  0  0  0  0  0  0
   32.1000   30.4760   16.1440 O   0  0  0  0  0  0  0  0  0  0  0  0
   32.4650   31.7440   18.8310 C   0  0  0  0  0  0  0  0  0  0  0  0
   31.1870   31.3230   19.5150 C   0  0  0  0  0  0  0  0  0  0  0  0
   30.1320   31.6120   18.9290 O   0  0  0  0  0  0  0  0  0  0  0  0
   31.2470   30.7300   20.6130 O   0  0  0  0  0  0  0  0  0  0  0  0
   30.4360   31.9690   15.8120 N   0  0  0  0  0  0  0  0  0  0  0  0
   29.9030   31.2160   14.6920 C   0  0  0  0  0  0  0  0  0  0  0  0
   29.3880   29.8020   14.9690 C   0  0  0  0  0  0  0  0  0  0  0  0
   29.0940   29.0870   14.0140 O   0  0  0  0  0  0  0  0  0  0  0  0
   28.7570   32.0960   14.1660 C   0  0  0  0  0  0  0  0  0  0  0  0
   28.4360   33.0690   15.2670 C   0  0  0  0  0  0  0  0  0  0  0  0
   29.6960   33.2240   16.0900 C   0  0  0  0  0  0  0  0  0  0  0  0
   29.2880   29.4170   16.2480 N   0  0  0  0  0  0  0  0  0  0  0  0
   28.8990   28.0580   16.6070 C   0  0  0  0  0  0  0  0  0  0  0  0
   30.0610   27.2290   17.1540 C   0  0  0  0  0  0  0  0  0  0  0  0
   29.8320   26.0980   17.5740 O   0  0  0  0  0  0  0  0  0  0  0  0
   27.6710   28.0420   17.5310 C   0  0  0  0  0  0  0  0  0  0  0  0
   27.7720   28.6860   18.9150 C   0  0  0  0  0  0  0  0  0  0  0  0
   28.8460   29.1610   19.3150 O   0  0  0  0  0  0  0  0  0  0  0  0
   26.7510   28.6550   19.6270 O   0  0  0  0  0  0  0  0  0  0  0  0
   31.2930   27.7440   17.0890 N   0  0  0  0  0  0  0  0  0  0  0  0
   32.4360   26.9640   17.5470 C   0  0  0  0  0  0  0  0  0  0  0  0
   33.4650   26.9170   16.4360 C   0  0  0  0  0  0  0  0  0  0  0  0
   34.0410   27.9400   16.0840 O   0  0  0  0  0  0  0  0  0  0  0  0
   33.0410   27.5620   18.8080 C   0  0  0  0  0  0  0  0  0  0  0  0
   34.1420   26.7150   19.4340 C   0  0  0  0  0  0  0  0  0  0  0  0
   34.9570   26.1140   18.7150 O   0  0  0  0  0  0  0  0  0  0  0  0
   34.2330   26.7550   20.6680 O   0  0  0  0  0  0  0  0  0  0  0  0
   33.6650   25.7510   15.7880 N   0  0  0  0  0  0  0  0  0  0  0  0
   34.5680   25.6900   14.6320 C   0  0  0  0  0  0  0  0  0  0  0  0
   36.0460   25.9650   14.9090 C   0  0  0  0  0  0  0  0  0  0  0  0
   36.8480   26.0900   13.9750 O   0  0  0  0  0  0  0  0  0  0  0  0
   34.3680   24.2760   14.0800 C   0  0  0  0  0  0  0  0  0  0  0  0
   33.6490   23.5090   15.1600 C   0  0  0  0  0  0  0  0  0  0  0  0
   32.9310   24.5070   16.0350 C   0  0  0  0  0  0  0  0  0  0  0  0
   36.4040   26.0640   16.1860 N   0  0  0  0  0  0  0  0  0  0  0  0
   37.7860   26.4080   16.5320 C   0  0  0  0  0  0  0  0  0  0  0  0
   37.9570   27.8050   17.1040 C   0  0  0  0  0  0  0  0  0  0  0  0
   39.0250   28.1670   17.5570 O   0  0  0  0  0  0  0  0  0  0  0  0
   38.3860   25.4610   17.5580 C   0  0  0  0  0  0  0  0  0  0  0  0
   38.5950   24.0780   16.9870 C   0  0  0  0  0  0  0  0  0  0  0  0
   38.6860   23.9370   15.7450 O   0  0  0  0  0  0  0  0  0  0  0  0
   38.6280   23.1550   17.7860 O   0  0  0  0  0  0  0  0  0  0  0  0
   36.8880   28.5860   17.0740 N   0  0  0  0  0  0  0  0  0  0  0  0
   36.9560   29.9500   17.5250 C   0  0  0  0  0  0  0  0  0  0  0  0
   36.5120   30.8490   16.3780 C   0  0  0  0  0  0  0  0  0  0  0  0
   35.2990   30.8470   16.0610 O   0  0  0  0  0  0  0  0  0  0  0  0
   36.0680   30.1640   18.7470 C   0  0  0  0  0  0  0  0  0  0  0  0
   36.2550   31.5380   19.3560 C   0  0  0  0  0  0  0  0  0  0  0  0
   36.3280   32.5540   18.6200 O   0  0  0  0  0  0  0  0  0  0  0  0
   36.2370   31.6090   20.6030 O   0  0  0  0  0  0  0  0  0  0  0  0
   37.4070   31.4840   15.8920 O   0  0  0  0  0  0  0  0  0  0  0  0
  1  2  1  0
  1  7  1  0
  2  3  1  0
  2  5  1  0
  3  4  2  0
  5  6  1  0
  6  7  1  0
  8  9  1  0
  9 10  1  0
  9 12  1  0
 10 11  2  0
 12 13  1  0
 13 14  2  0
 13 15  1  0
 16 17  1  0
 17 18  1  0
 17 20  1  0
 18 19  2  0
 20 21  1  0
 21 22  2  0
 21 23  1  0
 24 25  1  0
 24 30  1  0
 25 26  1  0
 25 28  1  0
 26 27  2  0
 28 29  1  0
 29 30  1  0
 31 32  1  0
 32 33  1  0
 32 35  1  0
 33 34  2  0
 35 36  1  0
 36 37  2  0
 36 38  1  0
 39 40  1  0
 40 41  1  0
 40 43  1  0
 41 42  2  0
 43 44  1  0
 44 45  2  0
 44 46  1  0
 47 48  1  0
 47 53  1  0
 48 49  1  0
 48 51  1  0
 49 50  2  0
 51 52  1  0
 52 53  1  0
 54 55  1  0
 55 56  1  0
 55 58  1  0
 56 57  2  0
 58 59  1  0
 59 60  2  0
 59 61  1  0
 62 63  1  0
 63 64  1  0
 63 66  1  0
 64 65  2  0
 64 70  1  0
 66 67  1  0
 67 68  2  0
 67 69  1  0
  3  8  1  0
  1 70  1  0
 10 16  1  0
 18 24  1  0
 26 31  1  0
 33 39  1  0
 41 47  1  0
 49 54  1  0
 56 62  1  0
M  END
$$$$
