
     RDKit          3D

  3  2  0  0  0  0  0  0  0  0999 V2000
   -2.5320   -8.4370    7.5120 C   0  0  0  0  0  0  0  0  0  0  0  0
   -2.5930   -6.9290    7.6980 C   0  0  0  0  0  0  0  0  0  0  0  0
   -1.5940   -8.7890    6.4960 O   0  0  0  0  0  0  0  0  0  0  0  0
  1  2  1  0
  1  3  1  0
M  END
$$$$
