
     RDKit          3D

  4  3  0  0  0  0  0  0  0  0999 V2000
    1.6580  -14.2370  -34.0940 C   0  0  0  0  0  0  0  0  0  0  0  0
    1.8800  -12.9270  -33.7680 O   0  0  0  0  0  0  0  0  0  0  0  0
    0.3470  -13.8210  -34.7100 C   0  0  0  0  0  0  0  0  0  0  0  0
   -0.0250  -14.6370  -35.8020 O   0  0  0  0  0  0  0  0  0  0  0  0
  1  2  1  0
  1  3  1  0
  3  4  1  0
M  END
$$$$
