
     RDKit          3D

  4  3  0  0  0  0  0  0  0  0999 V2000
   -3.8590  -10.9690  -31.0010 C   0  0  0  0  0  0  0  0  0  0  0  0
   -4.3490   -9.7230  -31.5000 O   0  0  0  0  0  0  0  0  0  0  0  0
   -3.9680  -12.0150  -32.0800 C   0  0  0  0  0  0  0  0  0  0  0  0
   -2.8800  -11.7950  -33.0840 O   0  0  0  0  0  0  0  0  0  0  0  0
  1  2  1  0
  1  3  1  0
  3  4  1  0
M  END
$$$$
