
     RDKit          3D

 85 85  0  0  0  0  0  0  0  0999 V2000
  -39.0230  -38.5820   21.4160 N   0  0  0  0  0  0  0  0  0  0  0  0
  -38.2240  -38.2730   20.2330 C   0  0  0  0  0  0  0  0  0  0  0  0
  -37.7700  -36.8080   20.2330 C   0  0  0  0  0  0  0  0  0  0  0  0
  -36.5890  -36.5610   19.9910 O   0  0  0  0  0  0  0  0  0  0  0  0
  -38.9860  -38.6050   18.9080 C   0  0  0  0  0  0  0  0  0  0  0  0
  -38.2930  -37.9840   17.6890 C   0  0  0  0  0  0  0  0  0  0  0  0
  -39.1120  -40.1100   18.7210 C   0  0  0  0  0  0  0  0  0  0  0  0
  -38.6690  -35.8430   20.5070 N   0  0  0  0  0  0  0  0  0  0  0  0
  -38.2990  -34.4370   20.3730 C   0  0  0  0  0  0  0  0  0  0  0  0
  -37.0190  -34.1420   21.1420 C   0  0  0  0  0  0  0  0  0  0  0  0
  -36.8360  -34.6020   22.2740 O   0  0  0  0  0  0  0  0  0  0  0  0
  -39.4110  -33.5290   20.8940 C   0  0  0  0  0  0  0  0  0  0  0  0
  -40.6350  -33.4590   20.0160 C   0  0  0  0  0  0  0  0  0  0  0  0
  -41.7910  -32.8160   20.7600 C   0  0  0  0  0  0  0  0  0  0  0  0
  -42.7960  -33.4660   21.0570 O   0  0  0  0  0  0  0  0  0  0  0  0
  -41.6470  -31.5270   21.0750 N   0  0  0  0  0  0  0  0  0  0  0  0
  -36.1300  -33.3710   20.5170 N   0  0  0  0  0  0  0  0  0  0  0  0
  -34.8930  -32.9830   21.1810 C   0  0  0  0  0  0  0  0  0  0  0  0
  -35.1750  -31.9810   22.2900 C   0  0  0  0  0  0  0  0  0  0  0  0
  -35.8970  -30.9840   22.1060 O   0  0  0  0  0  0  0  0  0  0  0  0
  -33.8820  -32.3900   20.1860 C   0  0  0  0  0  0  0  0  0  0  0  0
  -33.2110  -33.4220   19.2610 C   0  0  0  0  0  0  0  0  0  0  0  0
  -32.3610  -32.7030   18.2450 C   0  0  0  0  0  0  0  0  0  0  0  0
  -31.5510  -33.7560   17.4430 C   0  0  0  0  0  0  0  0  0  0  0  0
  -30.2890  -33.2210   16.8850 N   0  0  0  0  0  0  0  0  0  0  0  0
  -34.5700  -32.2320   23.4590 N   0  0  0  0  0  0  0  0  0  0  0  0
  -34.8830  -31.3800   24.6280 C   0  0  0  0  0  0  0  0  0  0  0  0
  -34.4640  -29.9050   24.3990 C   0  0  0  0  0  0  0  0  0  0  0  0
  -35.1180  -28.9810   24.9140 O   0  0  0  0  0  0  0  0  0  0  0  0
  -34.1530  -31.9270   25.8560 C   0  0  0  0  0  0  0  0  0  0  0  0
  -34.3270  -33.6800   26.2760 S   0  0  0  0  0  0  0  0  0  0  0  0
  -33.3910  -29.6690   23.6250 N   0  0  0  0  0  0  0  0  0  0  0  0
  -32.9200  -28.2940   23.3810 C   0  0  0  0  0  0  0  0  0  0  0  0
  -33.9500  -27.4390   22.6430 C   0  0  0  0  0  0  0  0  0  0  0  0
  -33.8270  -26.2020   22.6270 O   0  0  0  0  0  0  0  0  0  0  0  0
  -31.6030  -28.3260   22.5900 C   0  0  0  0  0  0  0  0  0  0  0  0
  -34.9430  -28.0550   21.9900 N   0  0  0  0  0  0  0  0  0  0  0  0
  -35.9400  -27.2580   21.2920 C   0  0  0  0  0  0  0  0  0  0  0  0
  -36.7200  -26.3410   22.2380 C   0  0  0  0  0  0  0  0  0  0  0  0
  -37.1560  -25.2550   21.8130 O   0  0  0  0  0  0  0  0  0  0  0  0
  -36.8900  -28.1670   20.5060 C   0  0  0  0  0  0  0  0  0  0  0  0
  -36.5720  -28.1270   19.0180 C   0  0  0  0  0  0  0  0  0  0  0  0
  -36.8480  -29.4240   18.2550 C   0  0  0  0  0  0  0  0  0  0  0  0
  -37.7660  -30.1740   18.5760 O   0  0  0  0  0  0  0  0  0  0  0  0
  -36.0260  -29.6990   17.2460 N   0  0  0  0  0  0  0  0  0  0  0  0
  -36.8640  -26.7170   23.5200 N   0  0  0  0  0  0  0  0  0  0  0  0
  -37.4780  -25.8330   24.5100 C   0  0  0  0  0  0  0  0  0  0  0  0
  -36.5330  -25.4150   25.6480 C   0  0  0  0  0  0  0  0  0  0  0  0
  -36.8640  -24.4540   26.3590 O   0  0  0  0  0  0  0  0  0  0  0  0
  -38.7460  -26.4740   25.1110 C   0  0  0  0  0  0  0  0  0  0  0  0
  -40.0470  -26.7930   23.8230 S   0  0  0  0  0  0  0  0  0  0  0  0
  -35.3850  -26.0730   25.8340 N   0  0  0  0  0  0  0  0  0  0  0  0
  -34.5350  -25.8600   27.0080 C   0  0  0  0  0  0  0  0  0  0  0  0
  -33.1500  -25.2920   26.6830 C   0  0  0  0  0  0  0  0  0  0  0  0
  -32.3240  -25.1580   27.6100 O   0  0  0  0  0  0  0  0  0  0  0  0
  -34.3850  -27.1600   27.8680 C   0  0  0  0  0  0  0  0  0  0  0  0
  -35.6360  -27.5680   28.5830 C   0  0  0  0  0  0  0  0  0  0  0  0
  -36.0960  -26.9410   29.7380 N   0  0  0  0  0  0  0  0  0  0  0  0
  -36.5610  -28.5150   28.2710 C   0  0  0  0  0  0  0  0  0  0  0  0
  -37.2510  -27.4900   30.0970 C   0  0  0  0  0  0  0  0  0  0  0  0
  -37.5510  -28.4450   29.2210 N   0  0  0  0  0  0  0  0  0  0  0  0
  -32.8650  -24.9100   25.4270 N   0  0  0  0  0  0  0  0  0  0  0  0
  -31.6740  -24.1030   25.1200 C   0  0  0  0  0  0  0  0  0  0  0  0
  -32.1420  -22.8570   24.3800 C   0  0  0  0  0  0  0  0  0  0  0  0
  -32.4090  -22.8990   23.1680 O   0  0  0  0  0  0  0  0  0  0  0  0
  -30.6240  -24.8510   24.2870 C   0  0  0  0  0  0  0  0  0  0  0  0
  -30.1340  -25.9910   24.9970 O   0  0  0  0  0  0  0  0  0  0  0  0
  -29.4680  -23.8970   23.9890 C   0  0  0  0  0  0  0  0  0  0  0  0
  -32.1340  -21.7210   25.0770 N   0  0  0  0  0  0  0  0  0  0  0  0
  -32.5830  -20.4410   24.5410 C   0  0  0  0  0  0  0  0  0  0  0  0
  -31.3320  -19.6520   24.1120 C   0  0  0  0  0  0  0  0  0  0  0  0
  -30.5310  -19.2340   24.9600 O   0  0  0  0  0  0  0  0  0  0  0  0
  -33.4390  -19.6880   25.5840 C   0  0  0  0  0  0  0  0  0  0  0  0
  -33.8210  -18.3540   24.9920 C   0  0  0  0  0  0  0  0  0  0  0  0
  -34.6690  -20.5440   26.0380 C   0  0  0  0  0  0  0  0  0  0  0  0
  -31.1230  -19.4820   22.7920 N   0  0  0  0  0  0  0  0  0  0  0  0
  -29.8780  -18.9250   22.2370 C   0  0  0  0  0  0  0  0  0  0  0  0
  -30.0970  -17.7800   21.2530 C   0  0  0  0  0  0  0  0  0  0  0  0
  -29.1390  -17.1150   20.7920 O   0  0  0  0  0  0  0  0  0  0  0  0
  -29.0880  -20.0120   21.5000 C   0  0  0  0  0  0  0  0  0  0  0  0
  -28.1180  -20.8020   22.3320 C   0  0  0  0  0  0  0  0  0  0  0  0
  -27.5220  -21.9780   21.5640 C   0  0  0  0  0  0  0  0  0  0  0  0
  -28.1470  -22.5340   20.6500 O   0  0  0  0  0  0  0  0  0  0  0  0
  -26.3190  -22.3790   21.9550 N   0  0  0  0  0  0  0  0  0  0  0  0
  -31.2390  -17.5580   20.8640 O   0  0  0  0  0  0  0  0  0  0  0  0
  1  2  1  0
  2  3  1  0
  2  5  1  0
  3  4  2  0
  5  6  1  0
  5  7  1  0
  8  9  1  0
  9 10  1  0
  9 12  1  0
 10 11  2  0
 12 13  1  0
 13 14  1  0
 14 15  2  0
 14 16  1  0
 17 18  1  0
 18 19  1  0
 18 21  1  0
 19 20  2  0
 21 22  1  0
 22 23  1  0
 23 24  1  0
 24 25  1  0
 26 27  1  0
 27 28  1  0
 27 30  1  0
 28 29  2  0
 30 31  1  0
 32 33  1  0
 33 34  1  0
 33 36  1  0
 34 35  2  0
 37 38  1  0
 38 39  1  0
 38 41  1  0
 39 40  2  0
 41 42  1  0
 42 43  1  0
 43 44  2  0
 43 45  1  0
 46 47  1  0
 47 48  1  0
 47 50  1  0
 48 49  2  0
 50 51  1  0
 52 53  1  0
 53 54  1  0
 53 56  1  0
 54 55  2  0
 56 57  1  0
 57 58  1  0
 57 59  2  0
 58 60  2  0
 59 61  1  0
 60 61  1  0
 62 63  1  0
 63 64  1  0
 63 66  1  0
 64 65  2  0
 66 67  1  0
 66 68  1  0
 69 70  1  0
 70 71  1  0
 70 73  1  0
 71 72  2  0
 73 74  1  0
 73 75  1  0
 76 77  1  0
 77 78  1  0
 77 80  1  0
 78 79  2  0
 78 85  1  0
 80 81  1  0
 81 82  1  0
 82 83  2  0
 82 84  1  0
  3  8  1  0
 10 17  1  0
 19 26  1  0
 28 32  1  0
 34 37  1  0
 39 46  1  0
 48 52  1  0
 54 62  1  0
 64 69  1  0
 71 76  1  0
M  CHG  2  25   1  58   1
M  END
$$$$
