
     RDKit          3D

  5  4  0  0  0  0  0  0  0  0999 V2000
   -1.8200   -5.8300    1.2300 S   0  0  0  0  0  0  0  0  0  0  0  0
   -1.2690   -4.4760    1.3080 O   0  0  0  0  0  0  0  0  0  0  0  0
   -2.3200   -6.0370   -0.1440 O   0  0  0  0  0  0  0  0  0  0  0  0
   -2.9100   -5.8500    2.2010 O   0  0  0  0  0  0  0  0  0  0  0  0
   -0.8600   -6.8850    1.5770 O   0  0  0  0  0  0  0  0  0  0  0  0
  1  2  2  0
  1  3  2  0
  1  4  1  0
  1  5  1  0
M  CHG  2   4  -1   5  -1
M  END
$$$$
