
     RDKit          3D

 42 46  0  0  0  0  0  0  0  0999 V2000
   35.6170    7.6300    3.0460 P   0  0  0  0  0  0  0  0  0  0  0  0
   34.9130    6.9810    4.1790 O   0  0  0  0  0  0  0  0  0  0  0  0
   35.2700    9.0080    2.6400 O   0  0  0  0  0  0  0  0  0  0  0  0
   35.7830    6.6830    1.7480 O   0  0  0  0  0  0  0  0  0  0  0  0
   34.7600    6.5200    0.7400 C   0  0  0  0  0  0  0  0  0  0  0  0
   34.2580    5.0900    0.5480 C   0  0  0  0  0  0  0  0  0  0  0  0
   35.3130    4.2130    0.0710 O   0  0  0  0  0  0  0  0  0  0  0  0
   33.6770    4.4320    1.7930 C   0  0  0  0  0  0  0  0  0  0  0  0
   32.5740    3.6380    1.4230 O   0  0  0  0  0  0  0  0  0  0  0  0
   34.8210    3.5430    2.2560 C   0  0  0  0  0  0  0  0  0  0  0  0
   35.3840    3.0850    0.9160 C   0  0  0  0  0  0  0  0  0  0  0  0
   36.7810    2.6580    1.0080 N   0  0  0  0  0  0  0  0  0  0  0  0
   37.0470    1.3310    1.2340 C   0  0  0  0  0  0  0  0  0  0  0  0
   36.2040    0.4710    1.3560 O   0  0  0  0  0  0  0  0  0  0  0  0
   38.3600    1.0150    1.3000 N   0  0  0  0  0  0  0  0  0  0  0  0
   39.4060    1.8870    1.1840 C   0  0  0  0  0  0  0  0  0  0  0  0
   40.5450    1.4690    1.2750 O   0  0  0  0  0  0  0  0  0  0  0  0
   39.0670    3.2680    0.9480 C   0  0  0  0  0  0  0  0  0  0  0  0
   40.1160    4.3340    0.9110 C   0  0  0  0  0  0  0  0  0  0  0  0
   37.7780    3.5880    0.8720 C   0  0  0  0  0  0  0  0  0  0  0  0
   31.0750    4.1230    1.6550 P   0  0  0  0  0  0  0  0  0  0  0  0
   30.9570    4.8400    2.9380 O   0  0  0  0  0  0  0  0  0  0  0  0
   30.2270    2.9520    1.3550 O   0  0  0  0  0  0  0  0  0  0  0  0
   30.9030    5.2060    0.5050 O   0  0  0  0  0  0  0  0  0  0  0  0
   31.0640    4.7750   -0.8060 C   0  0  0  0  0  0  0  0  0  0  0  0
   30.9220    5.9170   -1.7650 C   0  0  0  0  0  0  0  0  0  0  0  0
   32.1230    6.7170   -1.6900 O   0  0  0  0  0  0  0  0  0  0  0  0
   30.8540    5.3230   -3.1540 C   0  0  0  0  0  0  0  0  0  0  0  0
   29.6270    5.6380   -3.7540 O   0  0  0  0  0  0  0  0  0  0  0  0
   31.9270    6.0150   -3.9640 C   0  0  0  0  0  0  0  0  0  0  0  0
   32.6300    6.9420   -2.9880 C   0  0  0  0  0  0  0  0  0  0  0  0
   34.0530    6.6680   -2.9040 N   0  0  0  0  0  0  0  0  0  0  0  0
   35.0540    7.5990   -2.8790 C   0  0  0  0  0  0  0  0  0  0  0  0
   36.2390    7.0680   -2.7890 N   0  0  0  0  0  0  0  0  0  0  0  0
   36.0120    5.7050   -2.7410 C   0  0  0  0  0  0  0  0  0  0  0  0
   36.9480    4.6590   -2.6370 C   0  0  0  0  0  0  0  0  0  0  0  0
   38.1780    4.7960   -2.5720 O   0  0  0  0  0  0  0  0  0  0  0  0
   36.3250    3.4080   -2.6260 N   0  0  0  0  0  0  0  0  0  0  0  0
   34.9570    3.2420   -2.7010 C   0  0  0  0  0  0  0  0  0  0  0  0
   34.4920    1.9880   -2.6650 N   0  0  0  0  0  0  0  0  0  0  0  0
   34.0750    4.2280   -2.7940 N   0  0  0  0  0  0  0  0  0  0  0  0
   34.6700    5.4380   -2.8070 C   0  0  0  0  0  0  0  0  0  0  0  0
  1  2  2  0
  1  3  1  0
  1  4  1  0
  4  5  1  0
  5  6  1  0
  6  7  1  0
  6  8  1  0
  7 11  1  0
  8  9  1  0
  8 10  1  0
 10 11  1  0
 11 12  1  0
 12 13  1  0
 12 20  1  0
 13 14  2  0
 13 15  1  0
 15 16  1  0
 16 17  2  0
 16 18  1  0
 18 19  1  0
 18 20  2  0
 21 22  2  0
 21 23  1  0
 21 24  1  0
 24 25  1  0
 25 26  1  0
 26 27  1  0
 26 28  1  0
 27 31  1  0
 28 29  1  0
 28 30  1  0
 30 31  1  0
 31 32  1  0
 32 33  1  0
 32 42  1  0
 33 34  2  0
 34 35  1  0
 35 36  1  0
 35 42  2  0
 36 37  2  0
 36 38  1  0
 38 39  1  0
 39 40  1  0
 39 41  2  0
 41 42  1  0
  9 21  1  0
M  END
$$$$
