
     RDKit          3D

 51 55  0  0  0  0  0  0  0  0999 V2000
    8.1250   21.0150   57.9520 P   0  0  0  0  0  0  0  0  0  0  0  0
    9.0510   20.7350   56.8330 O   0  0  0  0  0  0  0  0  0  0  0  0
    8.6470   21.1760   59.3330 O   0  0  0  0  0  0  0  0  0  0  0  0
    7.2980   22.3570   57.6410 O   0  0  0  0  0  0  0  0  0  0  0  0
    6.6100   22.5850   56.3990 C   0  0  0  0  0  0  0  0  0  0  0  0
    5.5300   23.6360   56.6100 C   0  0  0  0  0  0  0  0  0  0  0  0
    4.4420   23.0820   57.4160 O   0  0  0  0  0  0  0  0  0  0  0  0
    5.9780   24.9130   57.3370 C   0  0  0  0  0  0  0  0  0  0  0  0
    6.3300   25.9250   56.3910 O   0  0  0  0  0  0  0  0  0  0  0  0
    4.7150   25.2860   58.1140 C   0  0  0  0  0  0  0  0  0  0  0  0
    4.1760   23.9150   58.5310 C   0  0  0  0  0  0  0  0  0  0  0  0
    7.3880   27.1130   56.7020 P   0  0  0  0  0  0  0  0  0  0  0  0
    7.7930   27.6750   55.3900 O   0  0  0  0  0  0  0  0  0  0  0  0
    8.4410   26.6490   57.6220 O   0  0  0  0  0  0  0  0  0  0  0  0
    6.4480   28.1110   57.5030 O   0  0  0  0  0  0  0  0  0  0  0  0
    7.0090   28.8960   58.5350 C   0  0  0  0  0  0  0  0  0  0  0  0
    6.0250   29.9770   58.8690 C   0  0  0  0  0  0  0  0  0  0  0  0
    5.0220   29.4310   59.7380 O   0  0  0  0  0  0  0  0  0  0  0  0
    6.5770   31.2040   59.5990 C   0  0  0  0  0  0  0  0  0  0  0  0
    6.6780   32.2220   58.6390 O   0  0  0  0  0  0  0  0  0  0  0  0
    5.4990   31.6000   60.5870 C   0  0  0  0  0  0  0  0  0  0  0  0
    4.4430   30.4940   60.4430 C   0  0  0  0  0  0  0  0  0  0  0  0
    3.9950   29.8870   61.7040 N   0  0  0  0  0  0  0  0  0  0  0  0
    2.6380   29.9470   61.9980 C   0  0  0  0  0  0  0  0  0  0  0  0
    1.7910   30.4930   61.2850 O   0  0  0  0  0  0  0  0  0  0  0  0
    2.3030   29.3460   63.1870 N   0  0  0  0  0  0  0  0  0  0  0  0
    3.1520   28.6990   64.0760 C   0  0  0  0  0  0  0  0  0  0  0  0
    2.7220   28.1920   65.1130 O   0  0  0  0  0  0  0  0  0  0  0  0
    4.5510   28.6660   63.6950 C   0  0  0  0  0  0  0  0  0  0  0  0
    5.5520   27.9980   64.5920 C   0  0  0  0  0  0  0  0  0  0  0  0
    4.9040   29.2530   62.5340 C   0  0  0  0  0  0  0  0  0  0  0  0
    7.9360   33.1850   58.6430 P   0  0  0  0  0  0  0  0  0  0  0  0
    8.0650   33.7290   57.2540 O   0  0  0  0  0  0  0  0  0  0  0  0
    9.1440   32.6000   59.2690 O   0  0  0  0  0  0  0  0  0  0  0  0
    7.4560   34.3020   59.6850 O   0  0  0  0  0  0  0  0  0  0  0  0
    6.2470   35.0180   59.5630 C   0  0  0  0  0  0  0  0  0  0  0  0
    6.1540   35.9640   60.7300 C   0  0  0  0  0  0  0  0  0  0  0  0
    5.8530   35.1450   61.8750 O   0  0  0  0  0  0  0  0  0  0  0  0
    7.4330   36.7260   61.1340 C   0  0  0  0  0  0  0  0  0  0  0  0
    7.0710   37.9620   61.7240 O   0  0  0  0  0  0  0  0  0  0  0  0
    8.0250   35.8810   62.2480 C   0  0  0  0  0  0  0  0  0  0  0  0
    6.7170   35.4890   62.9410 C   0  0  0  0  0  0  0  0  0  0  0  0
    6.7750   34.2950   63.8240 N   0  0  0  0  0  0  0  0  0  0  0  0
    6.0530   34.3250   64.9970 C   0  0  0  0  0  0  0  0  0  0  0  0
    5.4010   35.3030   65.3370 O   0  0  0  0  0  0  0  0  0  0  0  0
    6.1340   33.1730   65.7500 N   0  0  0  0  0  0  0  0  0  0  0  0
    6.8620   32.0310   65.4290 C   0  0  0  0  0  0  0  0  0  0  0  0
    6.8780   31.0620   66.1770 O   0  0  0  0  0  0  0  0  0  0  0  0
    7.5990   32.0680   64.1750 C   0  0  0  0  0  0  0  0  0  0  0  0
    8.4240   30.9020   63.6910 C   0  0  0  0  0  0  0  0  0  0  0  0
    7.5000   33.1870   63.4390 C   0  0  0  0  0  0  0  0  0  0  0  0
  1  2  2  0
  1  3  1  0
  1  4  1  0
  4  5  1  0
  5  6  1  0
  6  7  1  0
  6  8  1  0
  7 11  1  0
  8  9  1  0
  8 10  1  0
 10 11  1  0
 12 13  2  0
 12 14  1  0
 12 15  1  0
 15 16  1  0
 16 17  1  0
 17 18  1  0
 17 19  1  0
 18 22  1  0
 19 20  1  0
 19 21  1  0
 21 22  1  0
 22 23  1  0
 23 24  1  0
 23 31  1  0
 24 25  2  0
 24 26  1  0
 26 27  1  0
 27 28  2  0
 27 29  1  0
 29 30  1  0
 29 31  2  0
 32 33  2  0
 32 34  1  0
 32 35  1  0
 35 36  1  0
 36 37  1  0
 37 38  1  0
 37 39  1  0
 38 42  1  0
 39 40  1  0
 39 41  1  0
 41 42  1  0
 42 43  1  0
 43 44  1  0
 43 51  1  0
 44 45  2  0
 44 46  1  0
 46 47  1  0
 47 48  2  0
 47 49  1  0
 49 50  1  0
 49 51  2  0
  9 12  1  0
 20 32  1  0
M  END
$$$$
