
     RDKit          3D

 44 43  0  0  0  0  0  0  0  0999 V2000
    1.7080   32.3460    5.8210 N   0  0  0  0  0  0  0  0  0  0  0  0
    1.7210   31.1380    6.6800 C   0  0  0  0  0  0  0  0  0  0  0  0
    0.9480   30.0250    5.9690 C   0  0  0  0  0  0  0  0  0  0  0  0
   -0.1240   29.5980    6.4830 O   0  0  0  0  0  0  0  0  0  0  0  0
    1.1880   31.4580    8.0540 C   0  0  0  0  0  0  0  0  0  0  0  0
    2.1310   32.2410    8.7790 O   0  0  0  0  0  0  0  0  0  0  0  0
    1.4850   29.5960    4.8200 N   0  0  0  0  0  0  0  0  0  0  0  0
    0.8440   28.6500    3.8910 C   0  0  0  0  0  0  0  0  0  0  0  0
    1.6250   27.3540    3.7510 C   0  0  0  0  0  0  0  0  0  0  0  0
    2.8690   27.3760    3.8680 O   0  0  0  0  0  0  0  0  0  0  0  0
    0.9390   26.2380    3.4840 N   0  0  0  0  0  0  0  0  0  0  0  0
    1.6230   24.9640    3.1250 C   0  0  0  0  0  0  0  0  0  0  0  0
    0.8260   24.1980    2.0850 C   0  0  0  0  0  0  0  0  0  0  0  0
   -0.4400   24.1400    2.1490 O   0  0  0  0  0  0  0  0  0  0  0  0
    1.8710   24.0600    4.3340 C   0  0  0  0  0  0  0  0  0  0  0  0
    0.8960   24.2410    5.4290 C   0  0  0  0  0  0  0  0  0  0  0  0
    1.4580   23.2380    6.7920 S   0  0  0  0  0  0  0  0  0  0  0  0
    0.5030   21.7650    6.4650 C   0  0  0  0  0  0  0  0  0  0  0  0
    1.5700   23.6570    1.1340 N   0  0  0  0  0  0  0  0  0  0  0  0
    1.0100   22.9390   -0.0240 C   0  0  0  0  0  0  0  0  0  0  0  0
    1.6540   21.5890   -0.2140 C   0  0  0  0  0  0  0  0  0  0  0  0
    2.9030   21.5090   -0.1880 O   0  0  0  0  0  0  0  0  0  0  0  0
    0.8430   20.5660   -0.4340 N   0  0  0  0  0  0  0  0  0  0  0  0
    1.3060   19.1870   -0.7490 C   0  0  0  0  0  0  0  0  0  0  0  0
    0.6320   18.6810   -2.0220 C   0  0  0  0  0  0  0  0  0  0  0  0
   -0.6230   18.5440   -2.0600 O   0  0  0  0  0  0  0  0  0  0  0  0
    1.0170   18.2140    0.3890 C   0  0  0  0  0  0  0  0  0  0  0  0
    1.6830   16.5600    0.0610 S   0  0  0  0  0  0  0  0  0  0  0  0
    1.4330   18.4080   -3.0360 N   0  0  0  0  0  0  0  0  0  0  0  0
    0.9410   17.7010   -4.2470 C   0  0  0  0  0  0  0  0  0  0  0  0
    1.4670   16.2630   -4.1580 C   0  0  0  0  0  0  0  0  0  0  0  0
    2.6740   16.0500   -4.3590 O   0  0  0  0  0  0  0  0  0  0  0  0
    1.3410   18.4760   -5.5170 C   0  0  0  0  0  0  0  0  0  0  0  0
    0.7230   19.8810   -5.5540 C   0  0  0  0  0  0  0  0  0  0  0  0
    0.9620   17.6860   -6.7530 C   0  0  0  0  0  0  0  0  0  0  0  0
    1.0700   20.6960   -6.7900 C   0  0  0  0  0  0  0  0  0  0  0  0
    0.6170   15.3170   -3.7560 N   0  0  0  0  0  0  0  0  0  0  0  0
    1.0420   13.9660   -3.2940 C   0  0  0  0  0  0  0  0  0  0  0  0
    0.9030   12.9460   -4.4120 C   0  0  0  0  0  0  0  0  0  0  0  0
   -0.1790   12.4010   -4.5310 O   0  0  0  0  0  0  0  0  0  0  0  0
    0.2120   13.4710   -2.1110 C   0  0  0  0  0  0  0  0  0  0  0  0
    0.2420   14.5020   -1.1220 O   0  0  0  0  0  0  0  0  0  0  0  0
    0.7400   12.1720   -1.5400 C   0  0  0  0  0  0  0  0  0  0  0  0
    1.8410   12.6760   -5.1490 O   0  0  0  0  0  0  0  0  0  0  0  0
  1  2  1  0
  2  3  1  0
  2  5  1  0
  3  4  2  0
  5  6  1  0
  7  8  1  0
  8  9  1  0
  9 10  2  0
 11 12  1  0
 12 13  1  0
 12 15  1  0
 13 14  2  0
 15 16  1  0
 16 17  1  0
 17 18  1  0
 19 20  1  0
 20 21  1  0
 21 22  2  0
 23 24  1  0
 24 25  1  0
 24 27  1  0
 25 26  2  0
 27 28  1  0
 29 30  1  0
 30 31  1  0
 30 33  1  0
 31 32  2  0
 33 34  1  0
 33 35  1  0
 34 36  1  0
 37 38  1  0
 38 39  1  0
 38 41  1  0
 39 40  2  0
 39 44  1  0
 41 42  1  0
 41 43  1  0
  3  7  1  0
  9 11  1  0
 13 19  1  0
 21 23  1  0
 25 29  1  0
 31 37  1  0
M  END
$$$$
