
     RDKit          3D

 39 43  0  0  0  0  0  0  0  0999 V2000
   -0.2710    6.6260   -4.9650 O   0  0  0  0  0  0  0  0  0  0  0  0
    0.8490    6.4060   -3.9050 C   0  0  0  0  0  0  0  0  0  0  0  0
    1.3970    5.0160   -3.6770 C   0  0  0  0  0  0  0  0  0  0  0  0
    0.3920    4.1170   -3.1640 O   0  0  0  0  0  0  0  0  0  0  0  0
    1.9030    4.3720   -4.9890 C   0  0  0  0  0  0  0  0  0  0  0  0
    2.9950    3.6020   -4.7300 O   0  0  0  0  0  0  0  0  0  0  0  0
    0.7300    3.4690   -5.3930 C   0  0  0  0  0  0  0  0  0  0  0  0
    0.2490    2.9680   -4.0150 C   0  0  0  0  0  0  0  0  0  0  0  0
   -1.1520    2.6520   -4.1020 N   0  0  0  0  0  0  0  0  0  0  0  0
   -1.4670    1.3020   -4.3030 C   0  0  0  0  0  0  0  0  0  0  0  0
   -0.6720    0.3820   -4.3500 O   0  0  0  0  0  0  0  0  0  0  0  0
   -2.7490    1.0790   -4.3780 N   0  0  0  0  0  0  0  0  0  0  0  0
   -3.7780    1.9970   -4.4240 C   0  0  0  0  0  0  0  0  0  0  0  0
   -4.9200    1.5880   -4.5400 O   0  0  0  0  0  0  0  0  0  0  0  0
   -3.4170    3.3430   -4.1740 C   0  0  0  0  0  0  0  0  0  0  0  0
   -4.4180    4.4490   -4.1200 C   0  0  0  0  0  0  0  0  0  0  0  0
   -2.0990    3.6130   -4.0310 C   0  0  0  0  0  0  0  0  0  0  0  0
    4.5240    4.0750   -4.6950 P   0  0  0  0  0  0  0  0  0  0  0  0
    4.6690    4.7130   -5.9630 O   0  0  0  0  0  0  0  0  0  0  0  0
    5.3840    2.9160   -4.3570 O   0  0  0  0  0  0  0  0  0  0  0  0
    4.6780    5.1410   -3.4710 O   0  0  0  0  0  0  0  0  0  0  0  0
    4.5050    4.6450   -2.1860 C   0  0  0  0  0  0  0  0  0  0  0  0
    4.6290    5.7290   -1.2010 C   0  0  0  0  0  0  0  0  0  0  0  0
    3.5950    6.7070   -1.4500 O   0  0  0  0  0  0  0  0  0  0  0  0
    4.5240    5.2540    0.2630 C   0  0  0  0  0  0  0  0  0  0  0  0
    5.7980    5.1970    0.9250 O   0  0  0  0  0  0  0  0  0  0  0  0
    3.7200    6.3500    0.9080 C   0  0  0  0  0  0  0  0  0  0  0  0
    2.9710    7.0740   -0.2330 C   0  0  0  0  0  0  0  0  0  0  0  0
    1.5480    6.7140   -0.4170 N   0  0  0  0  0  0  0  0  0  0  0  0
    0.5660    7.6110   -0.6660 C   0  0  0  0  0  0  0  0  0  0  0  0
   -0.5830    7.0320   -0.8090 N   0  0  0  0  0  0  0  0  0  0  0  0
   -0.4260    5.7220   -0.6770 C   0  0  0  0  0  0  0  0  0  0  0  0
   -1.4160    4.6700   -0.7530 C   0  0  0  0  0  0  0  0  0  0  0  0
   -2.6160    4.7860   -0.9370 O   0  0  0  0  0  0  0  0  0  0  0  0
   -0.8300    3.4090   -0.6080 N   0  0  0  0  0  0  0  0  0  0  0  0
    0.4740    3.2460   -0.3940 C   0  0  0  0  0  0  0  0  0  0  0  0
    0.8550    1.9880   -0.2300 N   0  0  0  0  0  0  0  0  0  0  0  0
    1.3880    4.2520   -0.2980 N   0  0  0  0  0  0  0  0  0  0  0  0
    0.8890    5.4720   -0.4280 C   0  0  0  0  0  0  0  0  0  0  0  0
  1  2  1  0
  2  3  1  0
  3  4  1  0
  3  5  1  0
  4  8  1  0
  5  6  1  0
  5  7  1  0
  7  8  1  0
  8  9  1  0
  9 10  1  0
  9 17  1  0
 10 11  2  0
 10 12  1  0
 12 13  1  0
 13 14  2  0
 13 15  1  0
 15 16  1  0
 15 17  2  0
 18 19  2  0
 18 20  1  0
 18 21  1  0
 21 22  1  0
 22 23  1  0
 23 24  1  0
 23 25  1  0
 24 28  1  0
 25 26  1  0
 25 27  1  0
 27 28  1  0
 28 29  1  0
 29 30  1  0
 29 39  1  0
 30 31  2  0
 31 32  1  0
 32 33  1  0
 32 39  2  0
 33 34  2  0
 33 35  1  0
 35 36  1  0
 36 37  1  0
 36 38  2  0
 38 39  1  0
  6 18  1  0
M  END
$$$$
