
     RDKit          3D

  5  4  0  0  0  0  0  0  0  0999 V2000
   20.8150   -3.4300    1.2300 S   0  0  0  0  0  0  0  0  0  0  0  0
   21.3660   -2.0760    1.3080 O   0  0  0  0  0  0  0  0  0  0  0  0
   20.3150   -3.6370   -0.1440 O   0  0  0  0  0  0  0  0  0  0  0  0
   19.7250   -3.4500    2.2010 O   0  0  0  0  0  0  0  0  0  0  0  0
   21.7750   -4.4850    1.5770 O   0  0  0  0  0  0  0  0  0  0  0  0
  1  2  2  0
  1  3  2  0
  1  4  1  0
  1  5  1  0
M  CHG  2   4  -1   5  -1
M  END
$$$$
