
     RDKit          3D

 42 46  0  0  0  0  0  0  0  0999 V2000
    1.0160    7.7490    4.1340 P   0  0  0  0  0  0  0  0  0  0  0  0
    2.4310    7.5250    3.7570 O   0  0  0  0  0  0  0  0  0  0  0  0
    0.5740    9.0880    4.5830 O   0  0  0  0  0  0  0  0  0  0  0  0
    0.5910    6.6910    5.2580 O   0  0  0  0  0  0  0  0  0  0  0  0
    1.3010    6.6340    6.4940 C   0  0  0  0  0  0  0  0  0  0  0  0
    1.6340    5.2050    6.8980 C   0  0  0  0  0  0  0  0  0  0  0  0
    0.4270    4.5200    7.3250 O   0  0  0  0  0  0  0  0  0  0  0  0
    2.2700    4.3330    5.8150 C   0  0  0  0  0  0  0  0  0  0  0  0
    3.4430    3.6870    6.3220 O   0  0  0  0  0  0  0  0  0  0  0  0
    1.1710    3.3290    5.4630 C   0  0  0  0  0  0  0  0  0  0  0  0
    0.4230    3.2130    6.7870 C   0  0  0  0  0  0  0  0  0  0  0  0
   -0.9940    2.7050    6.6830 N   0  0  0  0  0  0  0  0  0  0  0  0
   -1.2350    1.3560    6.4620 C   0  0  0  0  0  0  0  0  0  0  0  0
   -0.3610    0.5150    6.3340 O   0  0  0  0  0  0  0  0  0  0  0  0
   -2.5650    1.0150    6.3900 N   0  0  0  0  0  0  0  0  0  0  0  0
   -3.6580    1.8580    6.5160 C   0  0  0  0  0  0  0  0  0  0  0  0
   -4.8100    1.4390    6.4330 O   0  0  0  0  0  0  0  0  0  0  0  0
   -3.3410    3.2520    6.7500 C   0  0  0  0  0  0  0  0  0  0  0  0
   -4.4230    4.2400    7.0780 C   0  0  0  0  0  0  0  0  0  0  0  0
   -2.0460    3.5980    6.8190 C   0  0  0  0  0  0  0  0  0  0  0  0
    4.9050    4.3150    6.1200 P   0  0  0  0  0  0  0  0  0  0  0  0
    4.9430    5.0110    4.8130 O   0  0  0  0  0  0  0  0  0  0  0  0
    5.8890    3.2460    6.3980 O   0  0  0  0  0  0  0  0  0  0  0  0
    5.0040    5.4090    7.2880 O   0  0  0  0  0  0  0  0  0  0  0  0
    5.0760    5.0210    8.6600 C   0  0  0  0  0  0  0  0  0  0  0  0
    4.7490    6.1900    9.5730 C   0  0  0  0  0  0  0  0  0  0  0  0
    3.4020    6.6400    9.3000 O   0  0  0  0  0  0  0  0  0  0  0  0
    4.7690    5.8670   11.0600 C   0  0  0  0  0  0  0  0  0  0  0  0
    6.0590    6.1370   11.5940 O   0  0  0  0  0  0  0  0  0  0  0  0
    3.7200    6.8050   11.6540 C   0  0  0  0  0  0  0  0  0  0  0  0
    2.8160    7.1640   10.4750 C   0  0  0  0  0  0  0  0  0  0  0  0
    1.4450    6.6570   10.5770 N   0  0  0  0  0  0  0  0  0  0  0  0
    0.3140    7.4190   10.7480 C   0  0  0  0  0  0  0  0  0  0  0  0
   -0.7870    6.7230   10.8050 N   0  0  0  0  0  0  0  0  0  0  0  0
   -0.3640    5.4090   10.6600 C   0  0  0  0  0  0  0  0  0  0  0  0
   -1.1180    4.2060   10.6420 C   0  0  0  0  0  0  0  0  0  0  0  0
   -2.3440    4.0720   10.7550 O   0  0  0  0  0  0  0  0  0  0  0  0
   -0.3100    3.0810   10.4730 N   0  0  0  0  0  0  0  0  0  0  0  0
    1.0610    3.1160   10.3380 C   0  0  0  0  0  0  0  0  0  0  0  0
    1.6750    1.9340   10.1830 N   0  0  0  0  0  0  0  0  0  0  0  0
    1.7780    4.2370   10.3520 N   0  0  0  0  0  0  0  0  0  0  0  0
    1.0080    5.3470   10.5170 C   0  0  0  0  0  0  0  0  0  0  0  0
  1  2  2  0
  1  3  1  0
  1  4  1  0
  4  5  1  0
  5  6  1  0
  6  7  1  0
  6  8  1  0
  7 11  1  0
  8  9  1  0
  8 10  1  0
 10 11  1  0
 11 12  1  0
 12 13  1  0
 12 20  1  0
 13 14  2  0
 13 15  1  0
 15 16  1  0
 16 17  2  0
 16 18  1  0
 18 19  1  0
 18 20  2  0
 21 22  2  0
 21 23  1  0
 21 24  1  0
 24 25  1  0
 25 26  1  0
 26 27  1  0
 26 28  1  0
 27 31  1  0
 28 29  1  0
 28 30  1  0
 30 31  1  0
 31 32  1  0
 32 33  1  0
 32 42  1  0
 33 34  2  0
 34 35  1  0
 35 36  1  0
 35 42  2  0
 36 37  2  0
 36 38  1  0
 38 39  1  0
 39 40  1  0
 39 41  2  0
 41 42  1  0
  9 21  1  0
M  END
$$$$
