
     RDKit          3D

 47 48  0  0  0  0  0  0  0  0999 V2000
    1.6220    3.6350   12.9850 N   0  0  0  0  0  0  0  0  0  0  0  0
    0.7560    4.0010   14.1140 C   0  0  0  0  0  0  0  0  0  0  0  0
   -0.6890    4.2910   13.7390 C   0  0  0  0  0  0  0  0  0  0  0  0
   -1.5200    4.3840   14.6250 O   0  0  0  0  0  0  0  0  0  0  0  0
    1.5060    5.2290   14.6720 C   0  0  0  0  0  0  0  0  0  0  0  0
    2.1720    5.8490   13.4600 C   0  0  0  0  0  0  0  0  0  0  0  0
    2.6450    4.6530   12.6840 C   0  0  0  0  0  0  0  0  0  0  0  0
   -0.9770    4.4500   12.4530 N   0  0  0  0  0  0  0  0  0  0  0  0
   -2.3180    4.6750   11.9590 C   0  0  0  0  0  0  0  0  0  0  0  0
   -3.0640    3.3850   11.5760 C   0  0  0  0  0  0  0  0  0  0  0  0
   -4.2470    3.4390   11.2160 O   0  0  0  0  0  0  0  0  0  0  0  0
   -2.2710    5.6020   10.7500 C   0  0  0  0  0  0  0  0  0  0  0  0
   -2.0150    7.0310   11.1720 C   0  0  0  0  0  0  0  0  0  0  0  0
   -2.7210    7.5320   12.0190 O   0  0  0  0  0  0  0  0  0  0  0  0
   -1.0640    7.6610   10.6240 O   0  0  0  0  0  0  0  0  0  0  0  0
   -2.4060    2.2180   11.6650 N   0  0  0  0  0  0  0  0  0  0  0  0
   -2.9670    0.9630   11.1870 C   0  0  0  0  0  0  0  0  0  0  0  0
   -2.8610   -0.0450   12.3160 C   0  0  0  0  0  0  0  0  0  0  0  0
   -1.7450   -0.5100   12.5610 O   0  0  0  0  0  0  0  0  0  0  0  0
   -2.2250    0.4440    9.9600 C   0  0  0  0  0  0  0  0  0  0  0  0
   -2.7740   -0.8410    9.3830 C   0  0  0  0  0  0  0  0  0  0  0  0
   -3.6190   -1.4840   10.0370 O   0  0  0  0  0  0  0  0  0  0  0  0
   -2.2740   -1.2030    8.2930 O   0  0  0  0  0  0  0  0  0  0  0  0
   -3.9300   -0.8320   13.0720 N   0  0  0  0  0  0  0  0  0  0  0  0
   -5.1680   -0.3720   12.4960 C   0  0  0  0  0  0  0  0  0  0  0  0
   -5.2530   -1.6370   11.6050 C   0  0  0  0  0  0  0  0  0  0  0  0
   -4.6640   -2.5550   12.6970 C   0  0  0  0  0  0  0  0  0  0  0  0
   -5.0900   -1.6070   13.8130 C   0  0  0  0  0  0  0  0  0  0  0  0
   -6.1620   -2.8730   13.3330 C   0  0  0  0  0  0  0  0  0  0  0  0
   -5.7380   -3.5150   12.3840 O   0  0  0  0  0  0  0  0  0  0  0  0
   -7.3580   -3.6310   13.4570 N   0  0  0  0  0  0  0  0  0  0  0  0
   -7.8430   -4.8790   12.5570 C   0  0  0  0  0  0  0  0  0  0  0  0
   -7.6210   -6.2940   13.1010 C   0  0  0  0  0  0  0  0  0  0  0  0
   -7.7750   -6.2290   14.5800 C   0  0  0  0  0  0  0  0  0  0  0  0
   -8.1940   -5.1170   15.0280 O   0  0  0  0  0  0  0  0  0  0  0  0
   -7.5190   -7.1770   15.3450 O   0  0  0  0  0  0  0  0  0  0  0  0
   -9.1590   -5.6030   13.0210 C   0  0  0  0  0  0  0  0  0  0  0  0
   -9.7640   -5.0260   13.9200 O   0  0  0  0  0  0  0  0  0  0  0  0
   -9.8330   -6.7440   12.6640 N   0  0  0  0  0  0  0  0  0  0  0  0
   -9.9510   -7.9390   11.7640 C   0  0  0  0  0  0  0  0  0  0  0  0
   -9.3350   -9.3550   11.9500 C   0  0  0  0  0  0  0  0  0  0  0  0
   -8.3970  -10.0370   12.9870 C   0  0  0  0  0  0  0  0  0  0  0  0
   -8.0560  -11.2190   12.7290 O   0  0  0  0  0  0  0  0  0  0  0  0
   -8.0700   -9.3450   13.9750 O   0  0  0  0  0  0  0  0  0  0  0  0
  -11.4150   -8.4700   11.8510 C   0  0  0  0  0  0  0  0  0  0  0  0
  -12.1820   -8.1960   10.8580 O   0  0  0  0  0  0  0  0  0  0  0  0
  -11.8490   -9.1400   12.8200 O   0  0  0  0  0  0  0  0  0  0  0  0
  1  2  1  0
  1  7  1  0
  2  3  1  0
  2  5  1  0
  3  4  2  0
  5  6  1  0
  6  7  1  0
  8  9  1  0
  9 10  1  0
  9 12  1  0
 10 11  2  0
 12 13  1  0
 13 14  2  0
 13 15  1  0
 16 17  1  0
 17 18  1  0
 17 20  1  0
 18 19  2  0
 20 21  1  0
 21 22  2  0
 21 23  1  0
 24 28  1  0
 24 25  1  0
 28 29  1  0
 28 27  1  0
 29 30  2  0
 27 26  1  0
 26 25  1  0
 31 32  1  0
 32 37  1  0
 32 33  1  0
 37 38  2  0
 33 34  1  0
 34 35  2  0
 34 36  1  0
 39 40  1  0
 40 45  1  0
 40 41  1  0
 45 46  2  0
 45 47  1  0
 41 42  1  0
 42 43  2  0
 42 44  1  0
  3  8  1  0
 10 16  1  0
 18 24  1  0
 29 31  1  0
 37 39  1  0
M  END
$$$$
