
     RDKit          3D

  5  4  0  0  0  0  0  0  0  0999 V2000
   20.8150   -8.2300    1.2300 S   0  0  0  0  0  0  0  0  0  0  0  0
   21.3660   -6.8760    1.3080 O   0  0  0  0  0  0  0  0  0  0  0  0
   20.3150   -8.4370   -0.1440 O   0  0  0  0  0  0  0  0  0  0  0  0
   19.7250   -8.2500    2.2010 O   0  0  0  0  0  0  0  0  0  0  0  0
   21.7750   -9.2850    1.5770 O   0  0  0  0  0  0  0  0  0  0  0  0
  1  2  2  0
  1  3  2  0
  1  4  1  0
  1  5  1  0
M  CHG  2   4  -1   5  -1
M  END
$$$$
