
     RDKit          3D

 11 12  0  0  0  0  0  0  0  0999 V2000
    5.2470   -4.6140    0.5200 O   0  0  0  0  0  0  0  0  0  0  0  0
    6.3750   -5.4660    0.0620 C   0  0  0  0  0  0  0  0  0  0  0  0
    7.1520   -4.8340   -1.1230 C   0  0  0  0  0  0  0  0  0  0  0  0
    7.9830   -3.7180   -0.6410 O   0  0  0  0  0  0  0  0  0  0  0  0
    5.8840   -6.8360   -0.4080 C   0  0  0  0  0  0  0  0  0  0  0  0
    5.1400   -7.4600    0.6520 O   0  0  0  0  0  0  0  0  0  0  0  0
    7.0930   -7.7350   -0.8880 C   0  0  0  0  0  0  0  0  0  0  0  0
    8.3420   -7.0110   -0.9380 O   0  0  0  0  0  0  0  0  0  0  0  0
    6.9860   -7.9880   -2.3420 C   0  0  0  0  0  0  0  0  0  0  0  0
    7.1910   -6.6630   -2.8620 O   0  0  0  0  0  0  0  0  0  0  0  0
    7.9940   -5.9420   -1.8540 C   0  0  0  0  0  0  0  0  0  0  0  0
  4  3  1  0
  3 11  1  0
  3  2  1  0
 11 10  1  0
 11  8  1  0
  1  2  1  0
 10  9  1  0
  2  5  1  0
  8  7  1  0
  9  7  1  0
  5  7  1  0
  5  6  1  0
M  END
$$$$
