
     RDKit          3D

 27 29  0  0  0  0  0  0  0  0999 V2000
  -10.2790   -1.4660  247.2870 P   0  0  0  0  0  0  0  0  0  0  0  0
  -10.4470   -1.3440  245.7930 O   0  0  0  0  0  0  0  0  0  0  0  0
  -11.4140   -0.7650  248.0610 O   0  0  0  0  0  0  0  0  0  0  0  0
   -8.9120   -1.1300  247.7890 O   0  0  0  0  0  0  0  0  0  0  0  0
   -9.3570   -4.0390  248.1360 P   0  0  0  0  0  0  0  0  0  0  0  0
   -8.0560   -3.8290  247.4270 O   0  0  0  0  0  0  0  0  0  0  0  0
   -9.3290   -3.9260  249.6580 O   0  0  0  0  0  0  0  0  0  0  0  0
  -10.4790   -3.0400  247.5460 O   0  0  0  0  0  0  0  0  0  0  0  0
   -9.9150   -5.4560  247.6640 O   0  0  0  0  0  0  0  0  0  0  0  0
  -11.1520   -6.0060  248.0880 C   0  0  0  0  0  0  0  0  0  0  0  0
  -11.0050   -7.5200  248.1580 C   0  0  0  0  0  0  0  0  0  0  0  0
  -10.8860   -8.0570  246.8010 O   0  0  0  0  0  0  0  0  0  0  0  0
   -9.7570   -8.0390  248.8800 C   0  0  0  0  0  0  0  0  0  0  0  0
  -10.1440   -9.0380  249.8410 O   0  0  0  0  0  0  0  0  0  0  0  0
   -8.8570   -8.5630  247.8080 C   0  0  0  0  0  0  0  0  0  0  0  0
   -7.9690   -9.5940  248.1880 O   0  0  0  0  0  0  0  0  0  0  0  0
   -9.8670   -9.0550  246.8070 C   0  0  0  0  0  0  0  0  0  0  0  0
   -9.4530   -9.1500  245.4080 N   0  0  0  0  0  0  0  0  0  0  0  0
   -8.8410   -8.1500  244.7110 C   0  0  0  0  0  0  0  0  0  0  0  0
   -8.6860   -8.5330  243.4470 N   0  0  0  0  0  0  0  0  0  0  0  0
   -9.1950   -9.8000  243.3170 C   0  0  0  0  0  0  0  0  0  0  0  0
   -9.3080  -10.7960  242.2390 C   0  0  0  0  0  0  0  0  0  0  0  0
   -8.8510  -10.4390  241.0320 N   0  0  0  0  0  0  0  0  0  0  0  0
   -9.8830  -11.9960  242.5180 N   0  0  0  0  0  0  0  0  0  0  0  0
  -10.3260  -12.2940  243.7870 C   0  0  0  0  0  0  0  0  0  0  0  0
  -10.2350  -11.4270  244.8310 N   0  0  0  0  0  0  0  0  0  0  0  0
   -9.7120  -10.2040  244.6130 C   0  0  0  0  0  0  0  0  0  0  0  0
  1  2  2  0
  1  3  1  0
  1  4  1  0
  1  8  1  0
  5  6  2  0
  5  7  1  0
  5  8  1  0
  5  9  1  0
  9 10  1  0
 10 11  1  0
 11 12  1  0
 11 13  1  0
 12 17  1  0
 13 14  1  0
 13 15  1  0
 15 16  1  0
 15 17  1  0
 17 18  1  0
 18 19  1  0
 18 27  1  0
 19 20  2  0
 20 21  1  0
 21 22  2  0
 21 27  1  0
 22 23  1  0
 22 24  1  0
 24 25  2  0
 25 26  1  0
 26 27  2  0
M  END
$$$$
