
     RDKit          3D

 42 46  0  0  0  0  0  0  0  0999 V2000
  -11.9880  -23.0000  -23.3730 C   0  0  0  0  0  0  0  0  0  0  0  0
  -12.4490  -23.2270  -21.9740 N   0  0  0  0  0  0  0  0  0  0  0  0
  -11.6130  -22.5400  -20.9470 C   0  0  0  0  0  0  0  0  0  0  0  0
  -12.2430  -22.6760  -19.5340 C   0  0  0  0  0  0  0  0  0  0  0  0
  -12.6290  -24.0450  -19.2050 N   0  0  0  0  0  0  0  0  0  0  0  0
  -13.4150  -24.6940  -20.2470 C   0  0  0  0  0  0  0  0  0  0  0  0
  -12.6710  -24.6580  -21.6080 C   0  0  0  0  0  0  0  0  0  0  0  0
  -12.7510  -24.4340  -17.8680 C   0  0  0  0  0  0  0  0  0  0  0  0
  -12.2480  -23.6500  -16.7950 C   0  0  0  0  0  0  0  0  0  0  0  0
  -12.3770  -24.0470  -15.4520 C   0  0  0  0  0  0  0  0  0  0  0  0
  -13.0200  -25.2630  -15.1130 C   0  0  0  0  0  0  0  0  0  0  0  0
  -13.2170  -25.7700  -13.8500 N   0  0  0  0  0  0  0  0  0  0  0  0
  -12.4090  -25.7430  -12.7460 C   0  0  0  0  0  0  0  0  0  0  0  0
  -12.8020  -26.3970  -11.6170 N   0  0  0  0  0  0  0  0  0  0  0  0
  -12.0420  -26.4070  -10.4820 C   0  0  0  0  0  0  0  0  0  0  0  0
  -10.8150  -25.7200  -10.4820 C   0  0  0  0  0  0  0  0  0  0  0  0
   -9.7900  -25.5110   -9.5220 C   0  0  0  0  0  0  0  0  0  0  0  0
   -9.6910  -25.9210   -8.3140 O   0  0  0  0  0  0  0  0  0  0  0  0
   -8.8340  -24.7510  -10.1480 N   0  0  0  0  0  0  0  0  0  0  0  0
   -7.6070  -24.2820   -9.5020 C   0  0  0  0  0  0  0  0  0  0  0  0
   -6.8710  -25.2280   -8.6670 C   0  0  0  0  0  0  0  0  0  0  0  0
   -6.6750  -26.4940   -9.0420 C   0  0  0  0  0  0  0  0  0  0  0  0
   -9.2200  -24.4790  -11.4000 N   0  0  0  0  0  0  0  0  0  0  0  0
  -10.4190  -25.0610  -11.6180 C   0  0  0  0  0  0  0  0  0  0  0  0
  -11.2190  -25.0880  -12.7110 N   0  0  0  0  0  0  0  0  0  0  0  0
   -8.6020  -23.7390  -12.3850 C   0  0  0  0  0  0  0  0  0  0  0  0
   -7.8060  -22.7140  -12.0150 N   0  0  0  0  0  0  0  0  0  0  0  0
   -7.1290  -21.8860  -12.8430 C   0  0  0  0  0  0  0  0  0  0  0  0
   -7.2630  -22.0840  -14.2360 C   0  0  0  0  0  0  0  0  0  0  0  0
   -8.0870  -23.1260  -14.6940 C   0  0  0  0  0  0  0  0  0  0  0  0
   -8.7560  -23.9560  -13.7770 C   0  0  0  0  0  0  0  0  0  0  0  0
   -6.2920  -20.8300  -12.2090 C   0  0  0  0  0  0  0  0  0  0  0  0
   -5.8430  -19.7110  -13.1900 C   0  0  0  0  0  0  0  0  0  0  0  0
   -5.0840  -21.5170  -11.5130 C   0  0  0  0  0  0  0  0  0  0  0  0
   -7.0460  -20.1900  -11.1740 O   0  0  0  0  0  0  0  0  0  0  0  0
  -13.5250  -26.0440  -16.1700 C   0  0  0  0  0  0  0  0  0  0  0  0
  -13.3960  -25.6450  -17.5100 C   0  0  0  0  0  0  0  0  0  0  0  0
   -5.8040  -24.7900   -6.0120 P   0  0  0  0  0  0  0  0  0  0  0  0
   -6.2900  -24.9710   -7.4450 O   0  0  0  0  0  0  0  0  0  0  0  0
   -5.5050  -23.3350   -5.7420 O   0  0  0  0  0  0  0  0  0  0  0  0
   -4.5480  -25.5930   -5.7740 O   0  0  0  0  0  0  0  0  0  0  0  0
   -6.8670  -25.2490   -5.0380 O   0  0  0  0  0  0  0  0  0  0  0  0
  1  2  1  0
  2  3  1  0
  2  7  1  0
  3  4  1  0
  7  6  1  0
  4  5  1  0
  6  5  1  0
  5  8  1  0
  8 37  2  0
  8  9  1  0
 37 36  1  0
  9 10  2  0
 36 11  2  0
 10 11  1  0
 11 12  1  0
 12 13  1  0
 30 29  2  0
 30 31  1  0
 29 28  1  0
 33 32  1  0
 13 25  2  0
 13 14  1  0
 31 26  2  0
 25 24  1  0
 28 32  1  0
 28 27  2  0
 35 32  1  0
 32 34  1  0
 14 15  2  0
 26 27  1  0
 26 23  1  0
 24 23  1  0
 24 16  2  0
 23 19  1  0
 15 16  1  0
 16 17  1  0
 19 17  1  0
 19 20  1  0
 17 18  2  0
 20 21  1  0
 21 22  2  0
 38 39  1  0
 38 40  2  0
 38 41  1  0
 38 42  1  0
 21 39  1  0
M  CHG  3  40  -1  41  -1  42  -1
M  END
$$$$
