
     RDKit          3D

  3  2  0  0  0  0  0  0  0  0999 V2000
    2.5190    3.2970   11.2500 C   0  0  0  0  0  0  0  0  0  0  0  0
    2.5800    4.8050   11.0640 C   0  0  0  0  0  0  0  0  0  0  0  0
    1.5810    2.9450   12.2660 O   0  0  0  0  0  0  0  0  0  0  0  0
  1  2  1  0
  1  3  1  0
M  END
$$$$
