
     RDKit          3D

 42 46  0  0  0  0  0  0  0  0999 V2000
   -7.9620    4.0630   17.1230 P   0  0  0  0  0  0  0  0  0  0  0  0
   -9.3370    4.3630   16.6660 O   0  0  0  0  0  0  0  0  0  0  0  0
   -6.8170    4.8150   16.5620 O   0  0  0  0  0  0  0  0  0  0  0  0
   -7.6750    2.5030   16.9240 O   0  0  0  0  0  0  0  0  0  0  0  0
   -6.8360    1.8110   17.8420 C   0  0  0  0  0  0  0  0  0  0  0  0
   -5.8330    0.9380   17.1050 C   0  0  0  0  0  0  0  0  0  0  0  0
   -4.7950    1.7710   16.5220 O   0  0  0  0  0  0  0  0  0  0  0  0
   -5.1110   -0.0990   17.9610 C   0  0  0  0  0  0  0  0  0  0  0  0
   -4.9780   -1.3180   17.2270 O   0  0  0  0  0  0  0  0  0  0  0  0
   -3.7580    0.5520   18.2410 C   0  0  0  0  0  0  0  0  0  0  0  0
   -3.5180    1.3370   16.9530 C   0  0  0  0  0  0  0  0  0  0  0  0
   -2.5950    2.5210   17.0970 N   0  0  0  0  0  0  0  0  0  0  0  0
   -1.2220    2.3300   17.1730 C   0  0  0  0  0  0  0  0  0  0  0  0
   -0.6770    1.2390   17.1350 O   0  0  0  0  0  0  0  0  0  0  0  0
   -0.4870    3.4860   17.3000 N   0  0  0  0  0  0  0  0  0  0  0  0
   -0.9690    4.7860   17.3560 C   0  0  0  0  0  0  0  0  0  0  0  0
   -0.2150    5.7490   17.4710 O   0  0  0  0  0  0  0  0  0  0  0  0
   -2.4080    4.9180   17.2680 C   0  0  0  0  0  0  0  0  0  0  0  0
   -3.0470    6.2710   17.1410 C   0  0  0  0  0  0  0  0  0  0  0  0
   -3.1360    3.7970   17.1470 C   0  0  0  0  0  0  0  0  0  0  0  0
   -5.1810   -2.7560   17.9110 P   0  0  0  0  0  0  0  0  0  0  0  0
   -5.7890   -2.5710   19.2480 O   0  0  0  0  0  0  0  0  0  0  0  0
   -3.9020   -3.4900   17.7850 O   0  0  0  0  0  0  0  0  0  0  0  0
   -6.2580   -3.4640   16.9590 O   0  0  0  0  0  0  0  0  0  0  0  0
   -6.0340   -3.6030   15.5560 C   0  0  0  0  0  0  0  0  0  0  0  0
   -7.1820   -2.9920   14.7720 C   0  0  0  0  0  0  0  0  0  0  0  0
   -7.1160   -1.5500   14.8640 O   0  0  0  0  0  0  0  0  0  0  0  0
   -7.2130   -3.3290   13.2830 C   0  0  0  0  0  0  0  0  0  0  0  0
   -8.3240   -4.1720   13.0010 O   0  0  0  0  0  0  0  0  0  0  0  0
   -7.3430   -1.9830   12.5670 C   0  0  0  0  0  0  0  0  0  0  0  0
   -7.6640   -0.9980   13.6880 C   0  0  0  0  0  0  0  0  0  0  0  0
   -7.0910    0.3380   13.5090 N   0  0  0  0  0  0  0  0  0  0  0  0
   -7.7930    1.5110   13.3720 C   0  0  0  0  0  0  0  0  0  0  0  0
   -7.0350    2.5630   13.2310 N   0  0  0  0  0  0  0  0  0  0  0  0
   -5.7420    2.0590   13.2810 C   0  0  0  0  0  0  0  0  0  0  0  0
   -4.4950    2.7300   13.1830 C   0  0  0  0  0  0  0  0  0  0  0  0
   -4.2920    3.9420   13.0280 O   0  0  0  0  0  0  0  0  0  0  0  0
   -3.4140    1.8510   13.2820 N   0  0  0  0  0  0  0  0  0  0  0  0
   -3.5270    0.4890   13.4530 C   0  0  0  0  0  0  0  0  0  0  0  0
   -2.3810   -0.2020   13.5290 N   0  0  0  0  0  0  0  0  0  0  0  0
   -4.6900   -0.1500   13.5480 N   0  0  0  0  0  0  0  0  0  0  0  0
   -5.7560    0.6890   13.4530 C   0  0  0  0  0  0  0  0  0  0  0  0
  1  2  2  0
  1  3  1  0
  1  4  1  0
  4  5  1  0
  5  6  1  0
  6  7  1  0
  6  8  1  0
  7 11  1  0
  8  9  1  0
  8 10  1  0
 10 11  1  0
 11 12  1  0
 12 13  1  0
 12 20  1  0
 13 14  2  0
 13 15  1  0
 15 16  1  0
 16 17  2  0
 16 18  1  0
 18 19  1  0
 18 20  2  0
 21 22  2  0
 21 23  1  0
 21 24  1  0
 24 25  1  0
 25 26  1  0
 26 27  1  0
 26 28  1  0
 27 31  1  0
 28 29  1  0
 28 30  1  0
 30 31  1  0
 31 32  1  0
 32 33  1  0
 32 42  1  0
 33 34  2  0
 34 35  1  0
 35 36  1  0
 35 42  2  0
 36 37  2  0
 36 38  1  0
 38 39  1  0
 39 40  1  0
 39 41  2  0
 41 42  1  0
  9 21  1  0
M  END
$$$$
