
     RDKit          3D

  5  4  0  0  0  0  0  0  0  0999 V2000
   -3.5180   -1.4380    9.5180 S   0  0  0  0  0  0  0  0  0  0  0  0
   -3.0330   -0.1640    8.9270 O   0  0  0  0  0  0  0  0  0  0  0  0
   -2.8130   -2.6170    8.9920 O   0  0  0  0  0  0  0  0  0  0  0  0
   -3.3660   -1.4570   10.9820 O   0  0  0  0  0  0  0  0  0  0  0  0
   -4.9740   -1.5310    9.4050 O   0  0  0  0  0  0  0  0  0  0  0  0
  1  2  2  0
  1  3  2  0
  1  4  1  0
  1  5  1  0
M  CHG  2   4  -1   5  -1
M  END
$$$$
