
     RDKit          3D

 42 46  0  0  0  0  0  0  0  0999 V2000
   -6.2030    4.7540   -3.3000 P   0  0  0  0  0  0  0  0  0  0  0  0
   -5.3010    5.8680   -3.6770 O   0  0  0  0  0  0  0  0  0  0  0  0
   -7.5830    5.0410   -2.8510 O   0  0  0  0  0  0  0  0  0  0  0  0
   -5.4990    3.8570   -2.1760 O   0  0  0  0  0  0  0  0  0  0  0  0
   -5.0950    4.4440   -0.9400 C   0  0  0  0  0  0  0  0  0  0  0  0
   -3.6910    4.0180   -0.5360 C   0  0  0  0  0  0  0  0  0  0  0  0
   -3.7010    2.6300   -0.1090 O   0  0  0  0  0  0  0  0  0  0  0  0
   -2.6170    4.1320   -1.6190 C   0  0  0  0  0  0  0  0  0  0  0  0
   -1.4720    4.8250   -1.1120 O   0  0  0  0  0  0  0  0  0  0  0  0
   -2.2970    2.6790   -1.9710 C   0  0  0  0  0  0  0  0  0  0  0  0
   -2.5710    1.9730   -0.6470 C   0  0  0  0  0  0  0  0  0  0  0  0
   -2.8400    0.4920   -0.7510 N   0  0  0  0  0  0  0  0  0  0  0  0
   -1.7920   -0.3920   -0.9720 C   0  0  0  0  0  0  0  0  0  0  0  0
   -0.6270   -0.0550   -1.1000 O   0  0  0  0  0  0  0  0  0  0  0  0
   -2.1620   -1.7140   -1.0440 N   0  0  0  0  0  0  0  0  0  0  0  0
   -3.4380   -2.2390   -0.9180 C   0  0  0  0  0  0  0  0  0  0  0  0
   -3.6510   -3.4460   -1.0010 O   0  0  0  0  0  0  0  0  0  0  0  0
   -4.4870   -1.2670   -0.6840 C   0  0  0  0  0  0  0  0  0  0  0  0
   -5.8830   -1.7100   -0.3560 C   0  0  0  0  0  0  0  0  0  0  0  0
   -4.1390    0.0270   -0.6150 C   0  0  0  0  0  0  0  0  0  0  0  0
   -1.2840    6.4050   -1.3140 P   0  0  0  0  0  0  0  0  0  0  0  0
   -1.8680    6.7860   -2.6210 O   0  0  0  0  0  0  0  0  0  0  0  0
    0.1330    6.7230   -1.0360 O   0  0  0  0  0  0  0  0  0  0  0  0
   -2.1820    7.0380   -0.1460 O   0  0  0  0  0  0  0  0  0  0  0  0
   -1.8100    6.9060    1.2260 C   0  0  0  0  0  0  0  0  0  0  0  0
   -2.9860    7.2080    2.1390 C   0  0  0  0  0  0  0  0  0  0  0  0
   -4.0490    6.2660    1.8660 O   0  0  0  0  0  0  0  0  0  0  0  0
   -2.6960    7.0640    3.6260 C   0  0  0  0  0  0  0  0  0  0  0  0
   -2.2850    8.3160    4.1600 O   0  0  0  0  0  0  0  0  0  0  0  0
   -4.0330    6.6240    4.2200 C   0  0  0  0  0  0  0  0  0  0  0  0
   -4.7960    6.0210    3.0410 C   0  0  0  0  0  0  0  0  0  0  0  0
   -5.0430    4.5800    3.1430 N   0  0  0  0  0  0  0  0  0  0  0  0
   -6.2680    3.9810    3.3140 C   0  0  0  0  0  0  0  0  0  0  0  0
   -6.2160    2.6800    3.3710 N   0  0  0  0  0  0  0  0  0  0  0  0
   -4.8660    2.3890    3.2260 C   0  0  0  0  0  0  0  0  0  0  0  0
   -4.2020    1.1350    3.2080 C   0  0  0  0  0  0  0  0  0  0  0  0
   -4.6980    0.0060    3.3210 O   0  0  0  0  0  0  0  0  0  0  0  0
   -2.8230    1.2720    3.0390 N   0  0  0  0  0  0  0  0  0  0  0  0
   -2.1680    2.4770    2.9040 C   0  0  0  0  0  0  0  0  0  0  0  0
   -0.8370    2.4180    2.7490 N   0  0  0  0  0  0  0  0  0  0  0  0
   -2.7800    3.6580    2.9180 N   0  0  0  0  0  0  0  0  0  0  0  0
   -4.1270    3.5460    3.0830 C   0  0  0  0  0  0  0  0  0  0  0  0
  1  2  2  0
  1  3  1  0
  1  4  1  0
  4  5  1  0
  5  6  1  0
  6  7  1  0
  6  8  1  0
  7 11  1  0
  8  9  1  0
  8 10  1  0
 10 11  1  0
 11 12  1  0
 12 13  1  0
 12 20  1  0
 13 14  2  0
 13 15  1  0
 15 16  1  0
 16 17  2  0
 16 18  1  0
 18 19  1  0
 18 20  2  0
 21 22  2  0
 21 23  1  0
 21 24  1  0
 24 25  1  0
 25 26  1  0
 26 27  1  0
 26 28  1  0
 27 31  1  0
 28 29  1  0
 28 30  1  0
 30 31  1  0
 31 32  1  0
 32 33  1  0
 32 42  1  0
 33 34  2  0
 34 35  1  0
 35 36  1  0
 35 42  2  0
 36 37  2  0
 36 38  1  0
 38 39  1  0
 39 40  1  0
 39 41  2  0
 41 42  1  0
  9 21  1  0
M  END
$$$$
