
     RDKit          3D

 79 88  0  0  0  0  0  0  0  0999 V2000
   -5.5960    6.6060   26.5500 O   0  0  0  0  0  0  0  0  0  0  0  0
   -6.6720    7.5180   26.4590 C   0  0  0  0  0  0  0  0  0  0  0  0
   -6.4280    8.5200   25.3690 C   0  0  0  0  0  0  0  0  0  0  0  0
   -5.1220    9.1650   25.5550 O   0  0  0  0  0  0  0  0  0  0  0  0
   -6.3430    7.9260   23.9490 C   0  0  0  0  0  0  0  0  0  0  0  0
   -7.5960    7.6820   23.4110 O   0  0  0  0  0  0  0  0  0  0  0  0
   -5.5620    9.0320   23.2050 C   0  0  0  0  0  0  0  0  0  0  0  0
   -4.5570    9.4800   24.2920 C   0  0  0  0  0  0  0  0  0  0  0  0
   -3.2360    8.8040   24.1680 N   0  0  0  0  0  0  0  0  0  0  0  0
   -2.3520    9.2350   23.2020 C   0  0  0  0  0  0  0  0  0  0  0  0
   -2.6930   10.1960   22.4740 O   0  0  0  0  0  0  0  0  0  0  0  0
   -1.1450    8.6410   23.0970 N   0  0  0  0  0  0  0  0  0  0  0  0
   -0.8350    7.6240   23.9030 C   0  0  0  0  0  0  0  0  0  0  0  0
    0.3680    7.0510   23.7620 N   0  0  0  0  0  0  0  0  0  0  0  0
   -1.7430    7.1530   24.8950 C   0  0  0  0  0  0  0  0  0  0  0  0
   -2.9220    7.7620   24.9920 C   0  0  0  0  0  0  0  0  0  0  0  0
   -7.7590    6.5010   22.3210 P   0  0  0  0  0  0  0  0  0  0  0  0
   -9.2300    6.4230   22.0850 O   0  0  0  0  0  0  0  0  0  0  0  0
   -7.0480    5.3360   22.7840 O   0  0  0  0  0  0  0  0  0  0  0  0
   -6.9790    7.0500   21.0550 O   0  0  0  0  0  0  0  0  0  0  0  0
   -7.5120    8.1840   20.2850 C   0  0  0  0  0  0  0  0  0  0  0  0
   -6.5380    8.6370   19.2710 C   0  0  0  0  0  0  0  0  0  0  0  0
   -5.3010    8.9950   19.9150 O   0  0  0  0  0  0  0  0  0  0  0  0
   -6.1110    7.5680   18.1980 C   0  0  0  0  0  0  0  0  0  0  0  0
   -7.0700    7.4610   17.1830 O   0  0  0  0  0  0  0  0  0  0  0  0
   -4.7630    8.1830   17.7070 C   0  0  0  0  0  0  0  0  0  0  0  0
   -4.1770    8.7110   19.0670 C   0  0  0  0  0  0  0  0  0  0  0  0
   -3.3240    7.7260   19.7330 N   0  0  0  0  0  0  0  0  0  0  0  0
   -3.6270    6.9340   20.8110 C   0  0  0  0  0  0  0  0  0  0  0  0
   -2.6560    6.1510   21.1670 N   0  0  0  0  0  0  0  0  0  0  0  0
   -1.6420    6.4370   20.2500 C   0  0  0  0  0  0  0  0  0  0  0  0
   -0.3400    5.8880   20.1320 C   0  0  0  0  0  0  0  0  0  0  0  0
    0.1930    5.0370   20.8610 O   0  0  0  0  0  0  0  0  0  0  0  0
    0.3700    6.4600   19.0720 N   0  0  0  0  0  0  0  0  0  0  0  0
   -0.1500    7.4150   18.2270 C   0  0  0  0  0  0  0  0  0  0  0  0
    0.6390    7.8660   17.2760 N   0  0  0  0  0  0  0  0  0  0  0  0
   -1.3590    7.9460   18.3440 N   0  0  0  0  0  0  0  0  0  0  0  0
   -2.0310    7.4120   19.3900 C   0  0  0  0  0  0  0  0  0  0  0  0
   -7.0970    6.1140   16.2610 P   0  0  0  0  0  0  0  0  0  0  0  0
   -8.1280    6.3470   15.2640 O   0  0  0  0  0  0  0  0  0  0  0  0
   -7.0610    4.9280   17.0870 O   0  0  0  0  0  0  0  0  0  0  0  0
   -5.6480    6.1210   15.5650 O   0  0  0  0  0  0  0  0  0  0  0  0
   -5.2940    7.1110   14.6670 C   0  0  0  0  0  0  0  0  0  0  0  0
   -3.9100    6.8630   14.1510 C   0  0  0  0  0  0  0  0  0  0  0  0
   -2.9390    6.9910   15.2100 O   0  0  0  0  0  0  0  0  0  0  0  0
   -3.6690    5.4320   13.6210 C   0  0  0  0  0  0  0  0  0  0  0  0
   -4.1880    5.3030   12.3610 O   0  0  0  0  0  0  0  0  0  0  0  0
   -2.1490    5.3590   13.6710 C   0  0  0  0  0  0  0  0  0  0  0  0
   -1.9000    6.0750   15.0250 C   0  0  0  0  0  0  0  0  0  0  0  0
   -1.8490    5.1250   16.1650 N   0  0  0  0  0  0  0  0  0  0  0  0
   -0.6670    4.4550   16.3600 C   0  0  0  0  0  0  0  0  0  0  0  0
    0.2710    4.6200   15.6650 O   0  0  0  0  0  0  0  0  0  0  0  0
   -0.6610    3.5990   17.3890 N   0  0  0  0  0  0  0  0  0  0  0  0
   -1.7070    3.3220   18.2370 C   0  0  0  0  0  0  0  0  0  0  0  0
   -1.5940    2.5630   19.1630 O   0  0  0  0  0  0  0  0  0  0  0  0
   -2.9380    4.0340   17.9470 C   0  0  0  0  0  0  0  0  0  0  0  0
   -4.1360    3.7830   18.7750 C   0  0  0  0  0  0  0  0  0  0  0  0
   -2.9410    4.8740   16.9230 C   0  0  0  0  0  0  0  0  0  0  0  0
   -4.5390    3.8300   11.8660 P   0  0  0  0  0  0  0  0  0  0  0  0
   -5.0940    3.9040   10.5150 O   0  0  0  0  0  0  0  0  0  0  0  0
   -5.2160    3.0170   12.9350 O   0  0  0  0  0  0  0  0  0  0  0  0
   -3.0600    3.2090   11.7610 O   0  0  0  0  0  0  0  0  0  0  0  0
   -2.1670    3.7710   10.7510 C   0  0  0  0  0  0  0  0  0  0  0  0
   -0.8780    2.9530   10.6460 C   0  0  0  0  0  0  0  0  0  0  0  0
   -0.1380    3.0790   11.8550 O   0  0  0  0  0  0  0  0  0  0  0  0
   -1.0720    1.4360   10.4380 C   0  0  0  0  0  0  0  0  0  0  0  0
   -1.2250    1.1590    9.0430 O   0  0  0  0  0  0  0  0  0  0  0  0
    0.2150    0.8610   11.0260 C   0  0  0  0  0  0  0  0  0  0  0  0
    0.5080    1.8480   12.1810 C   0  0  0  0  0  0  0  0  0  0  0  0
    0.0030    1.4040   13.4830 N   0  0  0  0  0  0  0  0  0  0  0  0
   -1.2400    1.6180   14.0090 C   0  0  0  0  0  0  0  0  0  0  0  0
   -1.4120    1.1060   15.2110 N   0  0  0  0  0  0  0  0  0  0  0  0
   -0.1880    0.5520   15.5130 C   0  0  0  0  0  0  0  0  0  0  0  0
    0.2640   -0.1640   16.6330 C   0  0  0  0  0  0  0  0  0  0  0  0
   -0.4820   -0.3730   17.7160 N   0  0  0  0  0  0  0  0  0  0  0  0
    1.5170   -0.6210   16.6070 N   0  0  0  0  0  0  0  0  0  0  0  0
    2.2860   -0.3800   15.5310 C   0  0  0  0  0  0  0  0  0  0  0  0
    1.9770    0.2680   14.4080 N   0  0  0  0  0  0  0  0  0  0  0  0
    0.6890    0.6960   14.4570 C   0  0  0  0  0  0  0  0  0  0  0  0
  1  2  1  0
  2  3  1  0
  3  4  1  0
  3  5  1  0
  4  8  1  0
  5  6  1  0
  5  7  1  0
  7  8  1  0
  8  9  1  0
  9 10  1  0
  9 16  1  0
 10 11  2  0
 10 12  1  0
 12 13  2  0
 13 14  1  0
 13 15  1  0
 15 16  2  0
 17 18  2  0
 17 19  1  0
 17 20  1  0
 20 21  1  0
 21 22  1  0
 22 23  1  0
 22 24  1  0
 23 27  1  0
 24 25  1  0
 24 26  1  0
 26 27  1  0
 27 28  1  0
 28 29  1  0
 28 38  1  0
 29 30  2  0
 30 31  1  0
 31 32  1  0
 31 38  2  0
 32 33  2  0
 32 34  1  0
 34 35  1  0
 35 36  1  0
 35 37  2  0
 37 38  1  0
 39 40  2  0
 39 41  1  0
 39 42  1  0
 42 43  1  0
 43 44  1  0
 44 45  1  0
 44 46  1  0
 45 49  1  0
 46 47  1  0
 46 48  1  0
 48 49  1  0
 49 50  1  0
 50 51  1  0
 50 58  1  0
 51 52  2  0
 51 53  1  0
 53 54  1  0
 54 55  2  0
 54 56  1  0
 56 57  1  0
 56 58  2  0
 59 60  2  0
 59 61  1  0
 59 62  1  0
 62 63  1  0
 63 64  1  0
 64 65  1  0
 64 66  1  0
 65 69  1  0
 66 67  1  0
 66 68  1  0
 68 69  1  0
 69 70  1  0
 70 71  1  0
 70 79  1  0
 71 72  2  0
 72 73  1  0
 73 74  2  0
 73 79  1  0
 74 75  1  0
 74 76  1  0
 76 77  2  0
 77 78  1  0
 78 79  2  0
  6 17  1  0
 25 39  1  0
 47 59  1  0
M  END
$$$$
