
     RDKit          3D

  5  4  0  0  0  0  0  0  0  0999 V2000
   14.2390    6.2750   29.8600 P   0  0  0  0  0  0  0  0  0  0  0  0
   15.5890    5.6100   29.6700 O   0  0  0  0  0  0  0  0  0  0  0  0
   14.0900    7.3620   28.8210 O   0  0  0  0  0  0  0  0  0  0  0  0
   13.1380    5.2630   29.6770 O   0  0  0  0  0  0  0  0  0  0  0  0
   14.1360    6.8780   31.2400 O   0  0  0  0  0  0  0  0  0  0  0  0
  1  2  2  0
  1  3  1  0
  1  4  1  0
  1  5  1  0
M  CHG  3   3  -1   4  -1   5  -1
M  END
$$$$
