
     RDKit          3D

  5  4  0  0  0  0  0  0  0  0999 V2000
   19.1170   -3.8380    9.5180 S   0  0  0  0  0  0  0  0  0  0  0  0
   19.6020   -2.5640    8.9270 O   0  0  0  0  0  0  0  0  0  0  0  0
   19.8220   -5.0170    8.9920 O   0  0  0  0  0  0  0  0  0  0  0  0
   19.2690   -3.8570   10.9820 O   0  0  0  0  0  0  0  0  0  0  0  0
   17.6610   -3.9310    9.4050 O   0  0  0  0  0  0  0  0  0  0  0  0
  1  2  2  0
  1  3  2  0
  1  4  1  0
  1  5  1  0
M  CHG  2   4  -1   5  -1
M  END
$$$$
