
     RDKit          3D

 92 97  0  0  0  0  0  0  0  0999 V2000
  -25.2120   -0.8320    9.0510 N   0  0  0  0  0  0  0  0  0  0  0  0
  -25.5760   -1.6420   10.1970 C   0  0  0  0  0  0  0  0  0  0  0  0
  -27.0600   -1.9720   10.2930 C   0  0  0  0  0  0  0  0  0  0  0  0
  -27.7320   -1.4750   11.1790 O   0  0  0  0  0  0  0  0  0  0  0  0
  -27.5700   -2.8140    9.3740 N   0  0  0  0  0  0  0  0  0  0  0  0
  -28.9590   -3.2670    9.2490 C   0  0  0  0  0  0  0  0  0  0  0  0
  -29.2800   -4.6050    9.9300 C   0  0  0  0  0  0  0  0  0  0  0  0
  -30.4360   -5.0290    9.8820 O   0  0  0  0  0  0  0  0  0  0  0  0
  -29.1010   -3.4450    7.7360 C   0  0  0  0  0  0  0  0  0  0  0  0
  -27.7750   -3.9580    7.3420 C   0  0  0  0  0  0  0  0  0  0  0  0
  -26.7900   -3.1930    8.1830 C   0  0  0  0  0  0  0  0  0  0  0  0
  -28.2940   -5.2500   10.5470 N   0  0  0  0  0  0  0  0  0  0  0  0
  -28.4370   -6.6270   11.0000 C   0  0  0  0  0  0  0  0  0  0  0  0
  -29.4730   -6.8870   12.0780 C   0  0  0  0  0  0  0  0  0  0  0  0
  -30.0210   -5.9560   12.6720 O   0  0  0  0  0  0  0  0  0  0  0  0
  -29.7310   -8.1710   12.3280 N   0  0  0  0  0  0  0  0  0  0  0  0
  -30.6840   -8.5970   13.3470 C   0  0  0  0  0  0  0  0  0  0  0  0
  -30.2440   -8.1240   14.7270 C   0  0  0  0  0  0  0  0  0  0  0  0
  -29.0840   -7.7560   14.9310 O   0  0  0  0  0  0  0  0  0  0  0  0
  -30.8290  -10.1250   13.3510 C   0  0  0  0  0  0  0  0  0  0  0  0
  -29.6590  -10.7580   13.8520 O   0  0  0  0  0  0  0  0  0  0  0  0
  -31.1800   -8.1430   15.6690 N   0  0  0  0  0  0  0  0  0  0  0  0
  -30.9100   -7.7220   17.0390 C   0  0  0  0  0  0  0  0  0  0  0  0
  -30.9670   -8.9290   17.9650 C   0  0  0  0  0  0  0  0  0  0  0  0
  -32.0210   -9.2600   18.5060 O   0  0  0  0  0  0  0  0  0  0  0  0
  -31.9110   -6.6560   17.4860 C   0  0  0  0  0  0  0  0  0  0  0  0
  -33.3750   -6.9980   17.2270 C   0  0  0  0  0  0  0  0  0  0  0  0
  -34.2770   -5.8220   17.4950 C   0  0  0  0  0  0  0  0  0  0  0  0
  -34.0790   -5.1510   18.5280 O   0  0  0  0  0  0  0  0  0  0  0  0
  -35.1770   -5.5580   16.6710 O   0  0  0  0  0  0  0  0  0  0  0  0
  -29.8250   -9.6050   18.1420 N   0  0  0  0  0  0  0  0  0  0  0  0
  -29.8690  -10.7740   19.0160 C   0  0  0  0  0  0  0  0  0  0  0  0
  -29.9790  -10.3720   20.4790 C   0  0  0  0  0  0  0  0  0  0  0  0
  -29.7740   -9.2050   20.8320 O   0  0  0  0  0  0  0  0  0  0  0  0
  -28.5320  -11.4640   18.7450 C   0  0  0  0  0  0  0  0  0  0  0  0
  -27.6270  -10.3700   18.3140 C   0  0  0  0  0  0  0  0  0  0  0  0
  -28.4770   -9.3680   17.5940 C   0  0  0  0  0  0  0  0  0  0  0  0
  -30.3240  -11.3310   21.3300 N   0  0  0  0  0  0  0  0  0  0  0  0
  -30.4230  -11.0520   22.7590 C   0  0  0  0  0  0  0  0  0  0  0  0
  -29.0640  -10.7170   23.3350 C   0  0  0  0  0  0  0  0  0  0  0  0
  -28.0380  -11.0340   22.7450 O   0  0  0  0  0  0  0  0  0  0  0  0
  -30.8740  -12.3950   23.3550 C   0  0  0  0  0  0  0  0  0  0  0  0
  -31.2780  -13.2450   22.2110 C   0  0  0  0  0  0  0  0  0  0  0  0
  -30.5110  -12.7590   21.0310 C   0  0  0  0  0  0  0  0  0  0  0  0
  -29.0490  -10.1010   24.5130 N   0  0  0  0  0  0  0  0  0  0  0  0
  -27.7960   -9.9500   25.2380 C   0  0  0  0  0  0  0  0  0  0  0  0
  -27.1310  -11.3000   25.4280 C   0  0  0  0  0  0  0  0  0  0  0  0
  -27.8070  -12.3120   25.6550 O   0  0  0  0  0  0  0  0  0  0  0  0
  -28.2550   -9.3850   26.5920 C   0  0  0  0  0  0  0  0  0  0  0  0
  -29.5450   -8.7280   26.3120 C   0  0  0  0  0  0  0  0  0  0  0  0
  -30.1960   -9.5910   25.2830 C   0  0  0  0  0  0  0  0  0  0  0  0
  -25.8120  -11.3160   25.3340 N   0  0  0  0  0  0  0  0  0  0  0  0
  -25.0550  -12.5040   25.6700 C   0  0  0  0  0  0  0  0  0  0  0  0
  -24.7020  -12.5130   27.1350 C   0  0  0  0  0  0  0  0  0  0  0  0
  -24.6170  -11.4480   27.7690 O   0  0  0  0  0  0  0  0  0  0  0  0
  -23.7610  -12.5220   24.9050 C   0  0  0  0  0  0  0  0  0  0  0  0
  -23.9760  -12.5860   23.4370 C   0  0  0  0  0  0  0  0  0  0  0  0
  -22.6630  -12.3990   22.7280 C   0  0  0  0  0  0  0  0  0  0  0  0
  -22.8510  -12.1450   21.2840 C   0  0  0  0  0  0  0  0  0  0  0  0
  -21.4990  -12.0040   20.7480 N   0  0  0  0  0  0  0  0  0  0  0  0
  -24.4660  -13.7090   27.6900 N   0  0  0  0  0  0  0  0  0  0  0  0
  -23.9020  -13.7390   29.0400 C   0  0  0  0  0  0  0  0  0  0  0  0
  -22.5280  -13.0960   29.0400 C   0  0  0  0  0  0  0  0  0  0  0  0
  -21.8670  -13.0800   28.0060 O   0  0  0  0  0  0  0  0  0  0  0  0
  -23.7880  -15.2350   29.3400 C   0  0  0  0  0  0  0  0  0  0  0  0
  -23.6350  -15.8730   27.9680 C   0  0  0  0  0  0  0  0  0  0  0  0
  -24.5010  -15.0460   27.0620 C   0  0  0  0  0  0  0  0  0  0  0  0
  -22.1040  -12.5460   30.1760 N   0  0  0  0  0  0  0  0  0  0  0  0
  -20.7220  -12.0820   30.2570 C   0  0  0  0  0  0  0  0  0  0  0  0
  -19.7270  -13.2430   30.1600 C   0  0  0  0  0  0  0  0  0  0  0  0
  -20.0640  -14.4050   30.4310 O   0  0  0  0  0  0  0  0  0  0  0  0
  -20.6630  -11.4420   31.6390 C   0  0  0  0  0  0  0  0  0  0  0  0
  -21.6620  -12.2040   32.4310 C   0  0  0  0  0  0  0  0  0  0  0  0
  -22.7590  -12.5780   31.4970 C   0  0  0  0  0  0  0  0  0  0  0  0
  -18.5010  -12.9050   29.7750 N   0  0  0  0  0  0  0  0  0  0  0  0
  -17.3800  -13.8290   29.8360 C   0  0  0  0  0  0  0  0  0  0  0  0
  -16.8270  -13.8520   31.2560 C   0  0  0  0  0  0  0  0  0  0  0  0
  -17.0670  -12.9320   32.0410 O   0  0  0  0  0  0  0  0  0  0  0  0
  -16.2720  -13.3970   28.8710 C   0  0  0  0  0  0  0  0  0  0  0  0
  -16.6740  -13.4160   27.3840 C   0  0  0  0  0  0  0  0  0  0  0  0
  -17.0310  -14.8220   26.9010 C   0  0  0  0  0  0  0  0  0  0  0  0
  -15.9350  -15.7400   27.1270 N   0  0  0  0  0  0  0  0  0  0  0  0
  -14.8830  -15.8590   26.3310 C   0  0  0  0  0  0  0  0  0  0  0  0
  -14.7810  -15.1260   25.2410 N   0  0  0  0  0  0  0  0  0  0  0  0
  -13.9080  -16.6880   26.6550 N   0  0  0  0  0  0  0  0  0  0  0  0
  -16.0980  -14.9090   31.5900 N   0  0  0  0  0  0  0  0  0  0  0  0
  -15.4110  -14.9770   32.8690 C   0  0  0  0  0  0  0  0  0  0  0  0
  -13.9220  -14.9580   32.6240 C   0  0  0  0  0  0  0  0  0  0  0  0
  -13.1450  -15.0210   33.5780 O   0  0  0  0  0  0  0  0  0  0  0  0
  -15.8230  -16.2140   33.6620 C   0  0  0  0  0  0  0  0  0  0  0  0
  -15.4030  -17.3970   33.0220 O   0  0  0  0  0  0  0  0  0  0  0  0
  -13.4900  -14.8590   31.4670 O   0  0  0  0  0  0  0  0  0  0  0  0
  1  2  1  0
  2  3  1  0
  3  4  2  0
  5  6  1  0
  5 11  1  0
  6  7  1  0
  6  9  1  0
  7  8  2  0
  9 10  1  0
 10 11  1  0
 12 13  1  0
 13 14  1  0
 14 15  2  0
 16 17  1  0
 17 18  1  0
 17 20  1  0
 18 19  2  0
 20 21  1  0
 22 23  1  0
 23 24  1  0
 23 26  1  0
 24 25  2  0
 26 27  1  0
 27 28  1  0
 28 29  2  0
 28 30  1  0
 31 32  1  0
 31 37  1  0
 32 33  1  0
 32 35  1  0
 33 34  2  0
 35 36  1  0
 36 37  1  0
 38 39  1  0
 38 44  1  0
 39 40  1  0
 39 42  1  0
 40 41  2  0
 42 43  1  0
 43 44  1  0
 45 46  1  0
 45 51  1  0
 46 47  1  0
 46 49  1  0
 47 48  2  0
 49 50  1  0
 50 51  1  0
 52 53  1  0
 53 54  1  0
 53 56  1  0
 54 55  2  0
 56 57  1  0
 57 58  1  0
 58 59  1  0
 59 60  1  0
 61 62  1  0
 61 67  1  0
 62 63  1  0
 62 65  1  0
 63 64  2  0
 65 66  1  0
 66 67  1  0
 68 69  1  0
 68 74  1  0
 69 70  1  0
 69 72  1  0
 70 71  2  0
 72 73  1  0
 73 74  1  0
 75 76  1  0
 76 77  1  0
 76 79  1  0
 77 78  2  0
 79 80  1  0
 80 81  1  0
 81 82  1  0
 82 83  1  0
 83 84  1  0
 83 85  2  0
 86 87  1  0
 87 88  1  0
 87 90  1  0
 88 89  2  0
 88 92  1  0
 90 91  1  0
  3  5  1  0
  7 12  1  0
 14 16  1  0
 18 22  1  0
 24 31  1  0
 33 38  1  0
 40 45  1  0
 47 52  1  0
 54 61  1  0
 63 68  1  0
 70 75  1  0
 77 86  1  0
M  CHG  2  60   1  85   1
M  END
$$$$
