
     RDKit          3D

 14 14  0  0  0  0  0  0  0  0999 V2000
    6.5490   35.3210   28.0390 C   0  0  0  0  0  0  0  0  0  0  0  0
    5.4310   30.6430   23.9260 C   0  0  0  0  0  0  0  0  0  0  0  0
    7.0820   35.4370   26.6330 C   0  0  0  0  0  0  0  0  0  0  0  0
    5.7920   34.2420   24.9210 C   0  0  0  0  0  0  0  0  0  0  0  0
    6.2220   31.7880   24.5710 C   0  0  0  0  0  0  0  0  0  0  0  0
    7.7180   31.7930   24.2250 C   0  0  0  0  0  0  0  0  0  0  0  0
    8.0180   31.9310   22.7430 C   0  0  0  0  0  0  0  0  0  0  0  0
    7.2360   31.0130   21.8150 C   0  0  0  0  0  0  0  0  0  0  0  0
    7.0810   29.5740   22.2880 C   0  0  0  0  0  0  0  0  0  0  0  0
    6.2840   29.4330   23.5770 C   0  0  0  0  0  0  0  0  0  0  0  0
    6.7670   34.2700   25.8240 N   0  0  0  0  0  0  0  0  0  0  0  0
    5.5690   33.0710   24.2880 N   0  0  0  0  0  0  0  0  0  0  0  0
    5.1400   35.4790   28.1540 O   0  0  0  0  0  0  0  0  0  0  0  0
    4.8340   35.5920   24.6420 S   0  0  0  0  0  0  0  0  0  0  0  0
 13  1  1  0
  1  3  1  0
  3 11  1  0
 11  4  1  0
  4 14  2  0
  4 12  1  0
 12  5  1  0
  5  6  1  0
  6  7  1  0
  7  8  1  0
  8  9  1  0
  9 10  1  0
 10  2  1  0
  5  2  1  0
M  END
$$$$
