
     RDKit          3D

 92 97  0  0  0  0  0  0  0  0999 V2000
  -10.7050  -16.8780  -30.5430 N   0  0  0  0  0  0  0  0  0  0  0  0
  -11.2240  -16.1570  -29.3970 C   0  0  0  0  0  0  0  0  0  0  0  0
  -10.7690  -14.7070  -29.3010 C   0  0  0  0  0  0  0  0  0  0  0  0
  -10.0020  -14.3740  -28.4150 O   0  0  0  0  0  0  0  0  0  0  0  0
  -11.2430  -13.8450  -30.2200 N   0  0  0  0  0  0  0  0  0  0  0  0
  -10.9400  -12.4150  -30.3450 C   0  0  0  0  0  0  0  0  0  0  0  0
  -11.9380  -11.4680  -29.6640 C   0  0  0  0  0  0  0  0  0  0  0  0
  -11.7270  -10.2550  -29.7120 O   0  0  0  0  0  0  0  0  0  0  0  0
  -11.0230  -12.2030  -31.8580 C   0  0  0  0  0  0  0  0  0  0  0  0
  -12.1300  -13.0950  -32.2520 C   0  0  0  0  0  0  0  0  0  0  0  0
  -11.9610  -14.3310  -31.4110 C   0  0  0  0  0  0  0  0  0  0  0  0
  -12.9910  -11.9990  -29.0470 N   0  0  0  0  0  0  0  0  0  0  0  0
  -14.1110  -11.1870  -28.5940 C   0  0  0  0  0  0  0  0  0  0  0  0
  -13.8180  -10.1600  -27.5160 C   0  0  0  0  0  0  0  0  0  0  0  0
  -12.7380  -10.1510  -26.9220 O   0  0  0  0  0  0  0  0  0  0  0  0
  -14.8020   -9.2950  -27.2660 N   0  0  0  0  0  0  0  0  0  0  0  0
  -14.6930   -8.2560  -26.2470 C   0  0  0  0  0  0  0  0  0  0  0  0
  -14.5040   -8.8740  -24.8670 C   0  0  0  0  0  0  0  0  0  0  0  0
  -14.7660  -10.0630  -24.6630 O   0  0  0  0  0  0  0  0  0  0  0  0
  -15.9450   -7.3670  -26.2430 C   0  0  0  0  0  0  0  0  0  0  0  0
  -17.0780   -8.0640  -25.7420 O   0  0  0  0  0  0  0  0  0  0  0  0
  -14.0530   -8.0540  -23.9250 N   0  0  0  0  0  0  0  0  0  0  0  0
  -13.8230   -8.4970  -22.5550 C   0  0  0  0  0  0  0  0  0  0  0  0
  -14.8390   -7.8450  -21.6290 C   0  0  0  0  0  0  0  0  0  0  0  0
  -14.5990   -6.7670  -21.0880 O   0  0  0  0  0  0  0  0  0  0  0  0
  -12.3990   -8.1640  -22.1080 C   0  0  0  0  0  0  0  0  0  0  0  0
  -11.9630   -6.7250  -22.3670 C   0  0  0  0  0  0  0  0  0  0  0  0
  -10.4940   -6.5320  -22.0990 C   0  0  0  0  0  0  0  0  0  0  0  0
  -10.0120   -7.0390  -21.0660 O   0  0  0  0  0  0  0  0  0  0  0  0
   -9.8160   -5.8850  -22.9230 O   0  0  0  0  0  0  0  0  0  0  0  0
  -15.9960   -8.4960  -21.4520 N   0  0  0  0  0  0  0  0  0  0  0  0
  -16.9870   -7.8740  -20.5780 C   0  0  0  0  0  0  0  0  0  0  0  0
  -16.5830   -7.9790  -19.1150 C   0  0  0  0  0  0  0  0  0  0  0  0
  -15.6760   -8.7400  -18.7620 O   0  0  0  0  0  0  0  0  0  0  0  0
  -18.2530   -8.6870  -20.8490 C   0  0  0  0  0  0  0  0  0  0  0  0
  -17.7570  -10.0170  -21.2800 C   0  0  0  0  0  0  0  0  0  0  0  0
  -16.4650   -9.7810  -22.0000 C   0  0  0  0  0  0  0  0  0  0  0  0
  -17.2410   -7.2010  -18.2640 N   0  0  0  0  0  0  0  0  0  0  0  0
  -16.9500   -7.2550  -16.8350 C   0  0  0  0  0  0  0  0  0  0  0  0
  -17.3390   -8.5990  -16.2590 C   0  0  0  0  0  0  0  0  0  0  0  0
  -18.1270   -9.3290  -16.8490 O   0  0  0  0  0  0  0  0  0  0  0  0
  -17.8880   -6.1930  -16.2390 C   0  0  0  0  0  0  0  0  0  0  0  0
  -18.4220   -5.4170  -17.3830 C   0  0  0  0  0  0  0  0  0  0  0  0
  -18.3840   -6.3250  -18.5630 C   0  0  0  0  0  0  0  0  0  0  0  0
  -16.8130   -8.9200  -15.0810 N   0  0  0  0  0  0  0  0  0  0  0  0
  -17.3100  -10.0810  -14.3560 C   0  0  0  0  0  0  0  0  0  0  0  0
  -18.8110   -9.9810  -14.1660 C   0  0  0  0  0  0  0  0  0  0  0  0
  -19.3490   -8.8900  -13.9390 O   0  0  0  0  0  0  0  0  0  0  0  0
  -16.5910   -9.9660  -13.0020 C   0  0  0  0  0  0  0  0  0  0  0  0
  -15.3760   -9.1770  -13.2820 C   0  0  0  0  0  0  0  0  0  0  0  0
  -15.7990   -8.1820  -14.3110 C   0  0  0  0  0  0  0  0  0  0  0  0
  -19.4840  -11.1160  -14.2600 N   0  0  0  0  0  0  0  0  0  0  0  0
  -20.8920  -11.1780  -13.9240 C   0  0  0  0  0  0  0  0  0  0  0  0
  -21.0760  -11.4790  -12.4590 C   0  0  0  0  0  0  0  0  0  0  0  0
  -20.1960  -12.0850  -11.8250 O   0  0  0  0  0  0  0  0  0  0  0  0
  -21.5540  -12.2890  -14.6890 C   0  0  0  0  0  0  0  0  0  0  0  0
  -21.5020  -12.0710  -16.1570 C   0  0  0  0  0  0  0  0  0  0  0  0
  -21.9970  -13.3020  -16.8660 C   0  0  0  0  0  0  0  0  0  0  0  0
  -21.6830  -13.2660  -18.3100 C   0  0  0  0  0  0  0  0  0  0  0  0
  -22.2360  -14.5070  -18.8460 N   0  0  0  0  0  0  0  0  0  0  0  0
  -22.2290  -11.0850  -11.9040 N   0  0  0  0  0  0  0  0  0  0  0  0
  -22.5380  -11.5590  -10.5540 C   0  0  0  0  0  0  0  0  0  0  0  0
  -22.6680  -13.0700  -10.5540 C   0  0  0  0  0  0  0  0  0  0  0  0
  -22.9850  -13.6510  -11.5880 O   0  0  0  0  0  0  0  0  0  0  0  0
  -23.8910  -10.9100  -10.2540 C   0  0  0  0  0  0  0  0  0  0  0  0
  -24.5190  -10.7230  -11.6260 C   0  0  0  0  0  0  0  0  0  0  0  0
  -23.3710  -10.3860  -12.5320 C   0  0  0  0  0  0  0  0  0  0  0  0
  -22.4030  -13.7120   -9.4180 N   0  0  0  0  0  0  0  0  0  0  0  0
  -22.6920  -15.1410   -9.3370 C   0  0  0  0  0  0  0  0  0  0  0  0
  -24.1950  -15.4220   -9.4340 C   0  0  0  0  0  0  0  0  0  0  0  0
  -25.0330  -14.5490   -9.1630 O   0  0  0  0  0  0  0  0  0  0  0  0
  -22.1680  -15.5120   -7.9550 C   0  0  0  0  0  0  0  0  0  0  0  0
  -22.3280  -14.2660   -7.1630 C   0  0  0  0  0  0  0  0  0  0  0  0
  -22.1040  -13.1280   -8.0970 C   0  0  0  0  0  0  0  0  0  0  0  0
  -24.5160  -16.6530   -9.8190 N   0  0  0  0  0  0  0  0  0  0  0  0
  -25.8770  -17.1620   -9.7580 C   0  0  0  0  0  0  0  0  0  0  0  0
  -26.1730  -17.6290   -8.3380 C   0  0  0  0  0  0  0  0  0  0  0  0
  -25.2570  -17.8820   -7.5530 O   0  0  0  0  0  0  0  0  0  0  0  0
  -26.0560  -18.3370  -10.7230 C   0  0  0  0  0  0  0  0  0  0  0  0
  -25.8720  -17.9790  -12.2100 C   0  0  0  0  0  0  0  0  0  0  0  0
  -26.9120  -16.9680  -12.6930 C   0  0  0  0  0  0  0  0  0  0  0  0
  -28.2540  -17.4580  -12.4670 N   0  0  0  0  0  0  0  0  0  0  0  0
  -28.8840  -18.3090  -13.2630 C   0  0  0  0  0  0  0  0  0  0  0  0
  -28.2990  -18.7640  -14.3530 N   0  0  0  0  0  0  0  0  0  0  0  0
  -30.0880  -18.7390  -12.9390 N   0  0  0  0  0  0  0  0  0  0  0  0
  -27.4530  -17.7320   -8.0040 N   0  0  0  0  0  0  0  0  0  0  0  0
  -27.8550  -18.2930   -6.7250 C   0  0  0  0  0  0  0  0  0  0  0  0
  -28.5830  -19.5920   -6.9700 C   0  0  0  0  0  0  0  0  0  0  0  0
  -29.0260  -20.2330   -6.0160 O   0  0  0  0  0  0  0  0  0  0  0  0
  -28.7210  -17.3180   -5.9320 C   0  0  0  0  0  0  0  0  0  0  0  0
  -29.9550  -17.0900   -6.5720 O   0  0  0  0  0  0  0  0  0  0  0  0
  -28.7140  -20.0160   -8.1270 O   0  0  0  0  0  0  0  0  0  0  0  0
  1  2  1  0
  2  3  1  0
  3  4  2  0
  5  6  1  0
  5 11  1  0
  6  7  1  0
  6  9  1  0
  7  8  2  0
  9 10  1  0
 10 11  1  0
 12 13  1  0
 13 14  1  0
 14 15  2  0
 16 17  1  0
 17 18  1  0
 17 20  1  0
 18 19  2  0
 20 21  1  0
 22 23  1  0
 23 24  1  0
 23 26  1  0
 24 25  2  0
 26 27  1  0
 27 28  1  0
 28 29  2  0
 28 30  1  0
 31 32  1  0
 31 37  1  0
 32 33  1  0
 32 35  1  0
 33 34  2  0
 35 36  1  0
 36 37  1  0
 38 39  1  0
 38 44  1  0
 39 40  1  0
 39 42  1  0
 40 41  2  0
 42 43  1  0
 43 44  1  0
 45 46  1  0
 45 51  1  0
 46 47  1  0
 46 49  1  0
 47 48  2  0
 49 50  1  0
 50 51  1  0
 52 53  1  0
 53 54  1  0
 53 56  1  0
 54 55  2  0
 56 57  1  0
 57 58  1  0
 58 59  1  0
 59 60  1  0
 61 62  1  0
 61 67  1  0
 62 63  1  0
 62 65  1  0
 63 64  2  0
 65 66  1  0
 66 67  1  0
 68 69  1  0
 68 74  1  0
 69 70  1  0
 69 72  1  0
 70 71  2  0
 72 73  1  0
 73 74  1  0
 75 76  1  0
 76 77  1  0
 76 79  1  0
 77 78  2  0
 79 80  1  0
 80 81  1  0
 81 82  1  0
 82 83  1  0
 83 84  1  0
 83 85  2  0
 86 87  1  0
 87 88  1  0
 87 90  1  0
 88 89  2  0
 88 92  1  0
 90 91  1  0
  3  5  1  0
  7 12  1  0
 14 16  1  0
 18 22  1  0
 24 31  1  0
 33 38  1  0
 40 45  1  0
 47 52  1  0
 54 61  1  0
 63 68  1  0
 70 75  1  0
 77 86  1  0
M  CHG  2  60   1  85   1
M  END
$$$$
