
     RDKit          3D

 35 38  0  0  0  0  0  0  0  0999 V2000
    7.6030  -12.7120    6.4500 P   0  0  0  0  0  0  0  0  0  0  0  0
    6.9790  -14.0440    6.1500 O   0  0  0  0  0  0  0  0  0  0  0  0
    9.0830  -12.4060    6.2420 O   0  0  0  0  0  0  0  0  0  0  0  0
    7.3450  -12.4520    7.9820 O   0  0  0  0  0  0  0  0  0  0  0  0
    6.2280  -13.0800    8.6060 C   0  0  0  0  0  0  0  0  0  0  0  0
    6.6480  -13.2230   10.0380 C   0  0  0  0  0  0  0  0  0  0  0  0
    5.5120  -13.1360   10.8760 O   0  0  0  0  0  0  0  0  0  0  0  0
    7.3650  -14.5490   10.2600 C   0  0  0  0  0  0  0  0  0  0  0  0
    8.6370  -14.3270   10.8730 O   0  0  0  0  0  0  0  0  0  0  0  0
    6.5040  -15.2450   11.2620 C   0  0  0  0  0  0  0  0  0  0  0  0
    7.3310  -15.9340   12.1830 O   0  0  0  0  0  0  0  0  0  0  0  0
    5.7650  -14.0860   11.9090 C   0  0  0  0  0  0  0  0  0  0  0  0
    4.5600  -14.6240   12.5500 N   0  0  0  0  0  0  0  0  0  0  0  0
    3.6130  -15.4010   11.9820 C   0  0  0  0  0  0  0  0  0  0  0  0
    2.6360  -15.6810   12.8830 N   0  0  0  0  0  0  0  0  0  0  0  0
    2.9990  -15.1010   14.0360 C   0  0  0  0  0  0  0  0  0  0  0  0
    2.4590  -15.0150   15.3910 C   0  0  0  0  0  0  0  0  0  0  0  0
    1.3120  -15.6660   15.6370 N   0  0  0  0  0  0  0  0  0  0  0  0
    3.1150  -14.2650   16.3280 N   0  0  0  0  0  0  0  0  0  0  0  0
    4.2740  -13.6500   16.0640 C   0  0  0  0  0  0  0  0  0  0  0  0
    4.8270  -13.6850   14.8330 N   0  0  0  0  0  0  0  0  0  0  0  0
    4.2550  -14.3820   13.8110 C   0  0  0  0  0  0  0  0  0  0  0  0
    6.6180  -11.6670    5.6930 O   0  0  0  0  0  0  0  0  0  0  0  0
    6.8520  -10.0770    5.5450 P   0  0  0  0  0  0  0  0  0  0  0  0
    7.3510   -9.8540    4.1590 O   0  0  0  0  0  0  0  0  0  0  0  0
    7.6280   -9.5460    6.7180 O   0  0  0  0  0  0  0  0  0  0  0  0
    5.3150   -9.5980    5.5630 O   0  0  0  0  0  0  0  0  0  0  0  0
    4.7930   -8.7530    6.5930 C   0  0  0  0  0  0  0  0  0  0  0  0
    3.7040   -7.8340    6.0320 C   0  0  0  0  0  0  0  0  0  0  0  0
    4.2860   -6.7610    5.2500 O   0  0  0  0  0  0  0  0  0  0  0  0
    2.8110   -8.6440    5.1300 C   0  0  0  0  0  0  0  0  0  0  0  0
    1.4560   -8.5680    5.4990 O   0  0  0  0  0  0  0  0  0  0  0  0
    3.0520   -8.0330    3.7650 C   0  0  0  0  0  0  0  0  0  0  0  0
    1.7970   -7.6260    3.2780 O   0  0  0  0  0  0  0  0  0  0  0  0
    4.0630   -6.8740    3.8460 C   0  0  0  0  0  0  0  0  0  0  0  0
  1  2  2  0
  1  3  1  0
  1  4  1  0
  1 23  1  0
  4  5  1  0
  5  6  1  0
  6  7  1  0
  6  8  1  0
  7 12  1  0
  8  9  1  0
  8 10  1  0
 10 11  1  0
 10 12  1  0
 12 13  1  0
 13 14  1  0
 13 22  1  0
 14 15  2  0
 15 16  1  0
 16 17  2  0
 16 22  1  0
 17 18  1  0
 17 19  1  0
 19 20  2  0
 20 21  1  0
 21 22  2  0
 23 24  1  0
 24 25  1  0
 24 26  2  0
 24 27  1  0
 27 28  1  0
 28 29  1  0
 29 30  1  0
 29 31  1  0
 30 35  1  0
 31 32  1  0
 31 33  1  0
 33 34  1  0
 33 35  1  0
M  END
$$$$
