
     RDKit          3D

 39 43  0  0  0  0  0  0  0  0999 V2000
   -5.8740    3.0780  -12.3550 O   0  0  0  0  0  0  0  0  0  0  0  0
   -5.1230    3.9380  -11.2950 C   0  0  0  0  0  0  0  0  0  0  0  0
   -3.6450    3.7180  -11.0670 C   0  0  0  0  0  0  0  0  0  0  0  0
   -3.3690    2.3980  -10.5540 O   0  0  0  0  0  0  0  0  0  0  0  0
   -2.8350    3.8340  -12.3790 C   0  0  0  0  0  0  0  0  0  0  0  0
   -1.6220    4.3950  -12.1200 O   0  0  0  0  0  0  0  0  0  0  0  0
   -2.6390    2.3670  -12.7830 C   0  0  0  0  0  0  0  0  0  0  0  0
   -2.4460    1.7000  -11.4050 C   0  0  0  0  0  0  0  0  0  0  0  0
   -2.8730    0.3280  -11.4920 N   0  0  0  0  0  0  0  0  0  0  0  0
   -1.8610   -0.6190  -11.6930 C   0  0  0  0  0  0  0  0  0  0  0  0
   -0.6670   -0.3910  -11.7400 O   0  0  0  0  0  0  0  0  0  0  0  0
   -2.3090   -1.8410  -11.7680 N   0  0  0  0  0  0  0  0  0  0  0  0
   -3.6180   -2.2730  -11.8140 C   0  0  0  0  0  0  0  0  0  0  0  0
   -3.8350   -3.4670  -11.9300 O   0  0  0  0  0  0  0  0  0  0  0  0
   -4.6040   -1.2880  -11.5640 C   0  0  0  0  0  0  0  0  0  0  0  0
   -6.0620   -1.6020  -11.5100 C   0  0  0  0  0  0  0  0  0  0  0  0
   -4.1780   -0.0110  -11.4210 C   0  0  0  0  0  0  0  0  0  0  0  0
   -1.2670    5.9550  -12.0850 P   0  0  0  0  0  0  0  0  0  0  0  0
   -1.7470    6.4000  -13.3530 O   0  0  0  0  0  0  0  0  0  0  0  0
    0.1670    6.1210  -11.7470 O   0  0  0  0  0  0  0  0  0  0  0  0
   -2.1130    6.6220  -10.8610 O   0  0  0  0  0  0  0  0  0  0  0  0
   -1.7700    6.2240   -9.5760 C   0  0  0  0  0  0  0  0  0  0  0  0
   -2.6470    6.8730   -8.5910 C   0  0  0  0  0  0  0  0  0  0  0  0
   -4.0110    6.4670   -8.8400 O   0  0  0  0  0  0  0  0  0  0  0  0
   -2.2880    6.5450   -7.1270 C   0  0  0  0  0  0  0  0  0  0  0  0
   -1.6020    7.6200   -6.4650 O   0  0  0  0  0  0  0  0  0  0  0  0
   -3.6390    6.3970   -6.4820 C   0  0  0  0  0  0  0  0  0  0  0  0
   -4.6410    6.1100   -7.6230 C   0  0  0  0  0  0  0  0  0  0  0  0
   -5.0400    4.6980   -7.8070 N   0  0  0  0  0  0  0  0  0  0  0  0
   -6.3080    4.2960   -8.0560 C   0  0  0  0  0  0  0  0  0  0  0  0
   -6.3810    3.0110   -8.1990 N   0  0  0  0  0  0  0  0  0  0  0  0
   -5.1680    2.4920   -8.0670 C   0  0  0  0  0  0  0  0  0  0  0  0
   -4.7520    1.1090   -8.1430 C   0  0  0  0  0  0  0  0  0  0  0  0
   -5.4530    0.1270   -8.3270 O   0  0  0  0  0  0  0  0  0  0  0  0
   -3.3670    0.9860   -7.9980 N   0  0  0  0  0  0  0  0  0  0  0  0
   -2.5740    2.0330   -7.7840 C   0  0  0  0  0  0  0  0  0  0  0  0
   -1.2940    1.7340   -7.6200 N   0  0  0  0  0  0  0  0  0  0  0  0
   -2.9880    3.3280   -7.6880 N   0  0  0  0  0  0  0  0  0  0  0  0
   -4.2940    3.5060   -7.8180 C   0  0  0  0  0  0  0  0  0  0  0  0
  1  2  1  0
  2  3  1  0
  3  4  1  0
  3  5  1  0
  4  8  1  0
  5  6  1  0
  5  7  1  0
  7  8  1  0
  8  9  1  0
  9 10  1  0
  9 17  1  0
 10 11  2  0
 10 12  1  0
 12 13  1  0
 13 14  2  0
 13 15  1  0
 15 16  1  0
 15 17  2  0
 18 19  2  0
 18 20  1  0
 18 21  1  0
 21 22  1  0
 22 23  1  0
 23 24  1  0
 23 25  1  0
 24 28  1  0
 25 26  1  0
 25 27  1  0
 27 28  1  0
 28 29  1  0
 29 30  1  0
 29 39  1  0
 30 31  2  0
 31 32  1  0
 32 33  1  0
 32 39  2  0
 33 34  2  0
 33 35  1  0
 35 36  1  0
 36 37  1  0
 36 38  2  0
 38 39  1  0
  6 18  1  0
M  END
$$$$
