
     RDKit          3D

 42 46  0  0  0  0  0  0  0  0999 V2000
    0.4620   -8.9270    2.2550 P   0  0  0  0  0  0  0  0  0  0  0  0
    0.8900  -10.2680    1.7980 O   0  0  0  0  0  0  0  0  0  0  0  0
   -0.7610   -8.3110    1.6940 O   0  0  0  0  0  0  0  0  0  0  0  0
    1.6700   -7.8980    2.0560 O   0  0  0  0  0  0  0  0  0  0  0  0
    1.8500   -6.8260    2.9740 C   0  0  0  0  0  0  0  0  0  0  0  0
    2.1040   -5.5200    2.2370 C   0  0  0  0  0  0  0  0  0  0  0  0
    0.8640   -5.0380    1.6540 O   0  0  0  0  0  0  0  0  0  0  0  0
    2.6410   -4.3770    3.0930 C   0  0  0  0  0  0  0  0  0  0  0  0
    3.6310   -3.6520    2.3590 O   0  0  0  0  0  0  0  0  0  0  0  0
    1.4010   -3.5300    3.3730 C   0  0  0  0  0  0  0  0  0  0  0  0
    0.6010   -3.7150    2.0850 C   0  0  0  0  0  0  0  0  0  0  0  0
   -0.8860   -3.5080    2.2290 N   0  0  0  0  0  0  0  0  0  0  0  0
   -1.4070   -2.2230    2.3050 C   0  0  0  0  0  0  0  0  0  0  0  0
   -0.7350   -1.2060    2.2670 O   0  0  0  0  0  0  0  0  0  0  0  0
   -2.7760   -2.1650    2.4320 N   0  0  0  0  0  0  0  0  0  0  0  0
   -3.6600   -3.2320    2.4880 C   0  0  0  0  0  0  0  0  0  0  0  0
   -4.8710   -3.0610    2.6030 O   0  0  0  0  0  0  0  0  0  0  0  0
   -3.0550   -4.5440    2.4000 C   0  0  0  0  0  0  0  0  0  0  0  0
   -3.9070   -5.7740    2.2730 C   0  0  0  0  0  0  0  0  0  0  0  0
   -1.7200   -4.6140    2.2790 C   0  0  0  0  0  0  0  0  0  0  0  0
    4.9770   -3.1090    3.0430 P   0  0  0  0  0  0  0  0  0  0  0  0
    5.1210   -3.7280    4.3800 O   0  0  0  0  0  0  0  0  0  0  0  0
    4.9730   -1.6340    2.9170 O   0  0  0  0  0  0  0  0  0  0  0  0
    6.1290   -3.6880    2.0910 O   0  0  0  0  0  0  0  0  0  0  0  0
    6.1370   -3.4240    0.6880 C   0  0  0  0  0  0  0  0  0  0  0  0
    6.1820   -4.7240   -0.0960 C   0  0  0  0  0  0  0  0  0  0  0  0
    4.9000   -5.3880   -0.0040 O   0  0  0  0  0  0  0  0  0  0  0  0
    6.4900   -4.5820   -1.5850 C   0  0  0  0  0  0  0  0  0  0  0  0
    7.7750   -5.1230   -1.8670 O   0  0  0  0  0  0  0  0  0  0  0  0
    5.3890   -5.3680   -2.3010 C   0  0  0  0  0  0  0  0  0  0  0  0
    4.6960   -6.1380   -1.1800 C   0  0  0  0  0  0  0  0  0  0  0  0
    3.2530   -6.3100   -1.3590 N   0  0  0  0  0  0  0  0  0  0  0  0
    2.5880   -7.5040   -1.4960 C   0  0  0  0  0  0  0  0  0  0  0  0
    1.2980   -7.3740   -1.6370 N   0  0  0  0  0  0  0  0  0  0  0  0
    1.0880   -6.0020   -1.5870 C   0  0  0  0  0  0  0  0  0  0  0  0
   -0.1170   -5.2580   -1.6850 C   0  0  0  0  0  0  0  0  0  0  0  0
   -1.2680   -5.6880   -1.8400 O   0  0  0  0  0  0  0  0  0  0  0  0
    0.1040   -3.8820   -1.5860 N   0  0  0  0  0  0  0  0  0  0  0  0
    1.3400   -3.2990   -1.4150 C   0  0  0  0  0  0  0  0  0  0  0  0
    1.3660   -1.9610   -1.3390 N   0  0  0  0  0  0  0  0  0  0  0  0
    2.4750   -3.9870   -1.3200 N   0  0  0  0  0  0  0  0  0  0  0  0
    2.2810   -5.3290   -1.4150 C   0  0  0  0  0  0  0  0  0  0  0  0
  1  2  2  0
  1  3  1  0
  1  4  1  0
  4  5  1  0
  5  6  1  0
  6  7  1  0
  6  8  1  0
  7 11  1  0
  8  9  1  0
  8 10  1  0
 10 11  1  0
 11 12  1  0
 12 13  1  0
 12 20  1  0
 13 14  2  0
 13 15  1  0
 15 16  1  0
 16 17  2  0
 16 18  1  0
 18 19  1  0
 18 20  2  0
 21 22  2  0
 21 23  1  0
 21 24  1  0
 24 25  1  0
 25 26  1  0
 26 27  1  0
 26 28  1  0
 27 31  1  0
 28 29  1  0
 28 30  1  0
 30 31  1  0
 31 32  1  0
 32 33  1  0
 32 42  1  0
 33 34  2  0
 34 35  1  0
 35 36  1  0
 35 42  2  0
 36 37  2  0
 36 38  1  0
 38 39  1  0
 39 40  1  0
 39 41  2  0
 41 42  1  0
  9 21  1  0
M  END
$$$$
