
     RDKit          3D

 42 46  0  0  0  0  0  0  0  0999 V2000
   -7.5000   -4.8640    9.6890 P   0  0  0  0  0  0  0  0  0  0  0  0
   -8.4470   -5.9050    9.2320 O   0  0  0  0  0  0  0  0  0  0  0  0
   -7.5780   -3.4960    9.1280 O   0  0  0  0  0  0  0  0  0  0  0  0
   -6.0050   -5.3950    9.4900 O   0  0  0  0  0  0  0  0  0  0  0  0
   -4.9860   -5.0150   10.4080 C   0  0  0  0  0  0  0  0  0  0  0  0
   -3.7290   -4.5820    9.6710 C   0  0  0  0  0  0  0  0  0  0  0  0
   -3.9310   -3.2670    9.0880 O   0  0  0  0  0  0  0  0  0  0  0  0
   -2.4700   -4.4760   10.5270 C   0  0  0  0  0  0  0  0  0  0  0  0
   -1.3470   -4.9700    9.7930 O   0  0  0  0  0  0  0  0  0  0  0  0
   -2.3570   -2.9780   10.8070 C   0  0  0  0  0  0  0  0  0  0  0  0
   -2.9170   -2.3780    9.5190 C   0  0  0  0  0  0  0  0  0  0  0  0
   -3.4810   -0.9870    9.6630 N   0  0  0  0  0  0  0  0  0  0  0  0
   -2.6290    0.1070    9.7390 C   0  0  0  0  0  0  0  0  0  0  0  0
   -1.4120    0.0330    9.7010 O   0  0  0  0  0  0  0  0  0  0  0  0
   -3.2630    1.3210    9.8660 N   0  0  0  0  0  0  0  0  0  0  0  0
   -4.6290    1.5540    9.9220 C   0  0  0  0  0  0  0  0  0  0  0  0
   -5.0860    2.6880   10.0370 O   0  0  0  0  0  0  0  0  0  0  0  0
   -5.4630    0.3740    9.8340 C   0  0  0  0  0  0  0  0  0  0  0  0
   -6.9540    0.4970    9.7070 C   0  0  0  0  0  0  0  0  0  0  0  0
   -4.8560   -0.8170    9.7130 C   0  0  0  0  0  0  0  0  0  0  0  0
   -0.2040   -5.8650   10.4770 P   0  0  0  0  0  0  0  0  0  0  0  0
   -0.6680   -6.2990   11.8140 O   0  0  0  0  0  0  0  0  0  0  0  0
    1.0710   -5.1240   10.3510 O   0  0  0  0  0  0  0  0  0  0  0  0
   -0.1290   -7.1520    9.5250 O   0  0  0  0  0  0  0  0  0  0  0  0
    0.1030   -7.0270    8.1220 C   0  0  0  0  0  0  0  0  0  0  0  0
   -1.0000   -7.7160    7.3380 C   0  0  0  0  0  0  0  0  0  0  0  0
   -2.2160   -6.9380    7.4300 O   0  0  0  0  0  0  0  0  0  0  0  0
   -0.7230   -7.9110    5.8490 C   0  0  0  0  0  0  0  0  0  0  0  0
   -0.5490   -9.2950    5.5670 O   0  0  0  0  0  0  0  0  0  0  0  0
   -1.9540   -7.3510    5.1330 C   0  0  0  0  0  0  0  0  0  0  0  0
   -2.9680   -7.1360    6.2540 C   0  0  0  0  0  0  0  0  0  0  0  0
   -3.8380   -5.9720    6.0750 N   0  0  0  0  0  0  0  0  0  0  0  0
   -5.2050   -5.9930    5.9380 C   0  0  0  0  0  0  0  0  0  0  0  0
   -5.7370   -4.8110    5.7970 N   0  0  0  0  0  0  0  0  0  0  0  0
   -4.6540   -3.9430    5.8470 C   0  0  0  0  0  0  0  0  0  0  0  0
   -4.6120   -2.5280    5.7490 C   0  0  0  0  0  0  0  0  0  0  0  0
   -5.5600   -1.7460    5.5940 O   0  0  0  0  0  0  0  0  0  0  0  0
   -3.3100   -2.0310    5.8480 N   0  0  0  0  0  0  0  0  0  0  0  0
   -2.1870   -2.8100    6.0190 C   0  0  0  0  0  0  0  0  0  0  0  0
   -1.0150   -2.1630    6.0950 N   0  0  0  0  0  0  0  0  0  0  0  0
   -2.2150   -4.1370    6.1140 N   0  0  0  0  0  0  0  0  0  0  0  0
   -3.4750   -4.6400    6.0190 C   0  0  0  0  0  0  0  0  0  0  0  0
  1  2  2  0
  1  3  1  0
  1  4  1  0
  4  5  1  0
  5  6  1  0
  6  7  1  0
  6  8  1  0
  7 11  1  0
  8  9  1  0
  8 10  1  0
 10 11  1  0
 11 12  1  0
 12 13  1  0
 12 20  1  0
 13 14  2  0
 13 15  1  0
 15 16  1  0
 16 17  2  0
 16 18  1  0
 18 19  1  0
 18 20  2  0
 21 22  2  0
 21 23  1  0
 21 24  1  0
 24 25  1  0
 25 26  1  0
 26 27  1  0
 26 28  1  0
 27 31  1  0
 28 29  1  0
 28 30  1  0
 30 31  1  0
 31 32  1  0
 32 33  1  0
 32 42  1  0
 33 34  2  0
 34 35  1  0
 35 36  1  0
 35 42  2  0
 36 37  2  0
 36 38  1  0
 38 39  1  0
 39 40  1  0
 39 41  2  0
 41 42  1  0
  9 21  1  0
M  END
$$$$
