
     RDKit          3D

 47 48  0  0  0  0  0  0  0  0999 V2000
   23.8670   18.3410    6.9090 N   0  0  0  0  0  0  0  0  0  0  0  0
   24.6920   18.7030    5.7810 C   0  0  0  0  0  0  0  0  0  0  0  0
   26.1410   18.9840    6.1740 C   0  0  0  0  0  0  0  0  0  0  0  0
   26.9980   19.0420    5.3000 O   0  0  0  0  0  0  0  0  0  0  0  0
   23.9720   19.9450    5.2390 C   0  0  0  0  0  0  0  0  0  0  0  0
   23.3510   20.5630    6.4710 C   0  0  0  0  0  0  0  0  0  0  0  0
   22.8380   19.3670    7.2190 C   0  0  0  0  0  0  0  0  0  0  0  0
   26.4120   19.2040    7.4640 N   0  0  0  0  0  0  0  0  0  0  0  0
   27.7600   19.4290    7.9430 C   0  0  0  0  0  0  0  0  0  0  0  0
   28.5300   18.1540    8.3010 C   0  0  0  0  0  0  0  0  0  0  0  0
   29.7100   18.2420    8.6680 O   0  0  0  0  0  0  0  0  0  0  0  0
   27.7180   20.3390    9.1700 C   0  0  0  0  0  0  0  0  0  0  0  0
   27.4040   21.7730    8.7870 C   0  0  0  0  0  0  0  0  0  0  0  0
   28.0530   22.2700    7.8850 O   0  0  0  0  0  0  0  0  0  0  0  0
   26.4520   22.3680    9.3700 O   0  0  0  0  0  0  0  0  0  0  0  0
   27.8520   16.9960    8.2840 N   0  0  0  0  0  0  0  0  0  0  0  0
   28.4780   15.7620    8.7170 C   0  0  0  0  0  0  0  0  0  0  0  0
   28.3840   14.7410    7.5900 C   0  0  0  0  0  0  0  0  0  0  0  0
   27.2580   14.2570    7.2900 O   0  0  0  0  0  0  0  0  0  0  0  0
   27.8080   15.2750    9.9920 C   0  0  0  0  0  0  0  0  0  0  0  0
   28.3050   13.9530   10.5400 C   0  0  0  0  0  0  0  0  0  0  0  0
   29.1850   13.3240    9.9030 O   0  0  0  0  0  0  0  0  0  0  0  0
   27.7880   13.5330   11.6170 O   0  0  0  0  0  0  0  0  0  0  0  0
   29.3980   14.0980    6.9060 N   0  0  0  0  0  0  0  0  0  0  0  0
   30.5280   14.7090    7.5570 C   0  0  0  0  0  0  0  0  0  0  0  0
   30.6010   13.5200    8.5450 C   0  0  0  0  0  0  0  0  0  0  0  0
   30.0290   12.6520    7.3960 C   0  0  0  0  0  0  0  0  0  0  0  0
   30.5280   13.4210    6.1850 C   0  0  0  0  0  0  0  0  0  0  0  0
   31.4280   12.1630    6.6750 C   0  0  0  0  0  0  0  0  0  0  0  0
   31.0650   11.6680    7.7510 O   0  0  0  0  0  0  0  0  0  0  0  0
   32.5610   11.4340    6.2150 N   0  0  0  0  0  0  0  0  0  0  0  0
   33.2050   10.2130    6.8490 C   0  0  0  0  0  0  0  0  0  0  0  0
   32.4650    9.0070    6.2270 C   0  0  0  0  0  0  0  0  0  0  0  0
   33.1680    7.8580    5.5090 C   0  0  0  0  0  0  0  0  0  0  0  0
   33.4170    6.7710    6.0930 O   0  0  0  0  0  0  0  0  0  0  0  0
   33.4840    8.0230    4.3200 O   0  0  0  0  0  0  0  0  0  0  0  0
   34.7580   10.0710    6.4300 C   0  0  0  0  0  0  0  0  0  0  0  0
   35.1970   10.9840    5.6940 O   0  0  0  0  0  0  0  0  0  0  0  0
   35.7540    9.1410    6.7010 N   0  0  0  0  0  0  0  0  0  0  0  0
   35.9960    7.8330    7.4010 C   0  0  0  0  0  0  0  0  0  0  0  0
   36.0630    6.4620    6.6860 C   0  0  0  0  0  0  0  0  0  0  0  0
   36.4520    6.2150    5.2140 C   0  0  0  0  0  0  0  0  0  0  0  0
   37.6320    6.4840    4.9040 O   0  0  0  0  0  0  0  0  0  0  0  0
   35.6030    5.7670    4.4160 O   0  0  0  0  0  0  0  0  0  0  0  0
   37.5430    7.8210    7.5170 C   0  0  0  0  0  0  0  0  0  0  0  0
   37.2790    6.8720    8.3090 O   0  0  0  0  0  0  0  0  0  0  0  0
   38.6940    7.4680    7.8800 O   0  0  0  0  0  0  0  0  0  0  0  0
  1  2  1  0
  1  7  1  0
  2  3  1  0
  2  5  1  0
  3  4  2  0
  5  6  1  0
  6  7  1  0
  8  9  1  0
  9 10  1  0
  9 12  1  0
 10 11  2  0
 12 13  1  0
 13 14  2  0
 13 15  1  0
 16 17  1  0
 17 18  1  0
 17 20  1  0
 18 19  2  0
 20 21  1  0
 21 22  2  0
 21 23  1  0
 24 28  1  0
 24 25  1  0
 28 29  1  0
 28 27  1  0
 29 30  2  0
 27 26  1  0
 26 25  1  0
 31 32  1  0
 32 37  1  0
 32 33  1  0
 37 38  2  0
 33 34  1  0
 34 35  2  0
 34 36  1  0
 39 40  1  0
 40 45  1  0
 40 41  1  0
 45 46  2  0
 45 47  1  0
 41 42  1  0
 42 43  2  0
 42 44  1  0
  3  8  1  0
 10 16  1  0
 18 24  1  0
 29 31  1  0
 37 39  1  0
M  END
$$$$
