
     RDKit          3D

 22 24  0  0  0  0  0  0  0  0999 V2000
 -131.8960 -171.2370  114.1620 C   0  0  0  0  0  0  0  0  0  0  0  0
 -127.6450 -171.1240  115.8100 C   0  0  0  0  0  0  0  0  0  0  0  0
 -127.2880 -172.0320  113.0280 C   0  0  0  0  0  0  0  0  0  0  0  0
 -127.0010 -170.8630  120.3910 C   0  0  0  0  0  0  0  0  0  0  0  0
 -127.7290 -170.0170  119.3450 C   0  0  0  0  0  0  0  0  0  0  0  0
 -128.1380 -170.6050  117.9810 C   0  0  0  0  0  0  0  0  0  0  0  0
 -129.4250 -171.1210  117.8120 C   0  0  0  0  0  0  0  0  0  0  0  0
 -129.7390 -171.6320  116.5520 C   0  0  0  0  0  0  0  0  0  0  0  0
 -131.4350 -172.5160  114.8830 C   0  0  0  0  0  0  0  0  0  0  0  0
 -132.5500 -173.5670  114.8360 C   0  0  0  0  0  0  0  0  0  0  0  0
 -133.2890 -173.0070  116.9660 C   0  0  0  0  0  0  0  0  0  0  0  0
 -132.2250 -171.9090  117.1080 C   0  0  0  0  0  0  0  0  0  0  0  0
 -128.2540 -170.0800  120.7810 C   0  0  0  0  0  0  0  0  0  0  0  0
 -126.5460 -167.4290  120.1990 N   0  0  0  0  0  0  0  0  0  0  0  0
 -131.0550 -172.1990  116.2680 N   0  0  0  0  0  0  0  0  0  0  0  0
 -128.8420 -171.6250  115.5810 N   0  0  0  0  0  0  0  0  0  0  0  0
 -127.2730 -170.6140  116.9770 N   0  0  0  0  0  0  0  0  0  0  0  0
 -125.6160 -168.3300  118.1160 N   0  0  0  0  0  0  0  0  0  0  0  0
 -133.6260 -173.1840  115.6280 O   0  0  0  0  0  0  0  0  0  0  0  0
 -127.2000 -167.5980  117.9230 O   0  0  0  0  0  0  0  0  0  0  0  0
 -126.8320 -168.4410  119.0650 S   0  0  0  0  0  0  0  0  0  0  0  0
 -126.4880 -171.1540  114.4170 S   0  0  0  0  0  0  0  0  0  0  0  0
  1  9  1  0
  2 16  2  0
  2 17  1  0
  2 22  1  0
  3 22  1  0
  4  5  1  0
  4 13  1  0
  5  6  1  0
  5 13  1  0
  5 21  1  0
  6  7  1  0
  6 17  2  0
  7  8  2  0
  8 15  1  0
  8 16  1  0
  9 10  1  0
  9 15  1  0
 10 19  1  0
 11 12  1  0
 11 19  1  0
 12 15  1  0
 14 21  2  0
 18 21  2  0
 20 21  2  0
M  CHG  1  21   1
M  END
$$$$
