
     RDKit          3D

 22 24  0  0  0  0  0  0  0  0999 V2000
   -8.6750   46.7780  126.9900 C   0  0  0  0  0  0  0  0  0  0  0  0
   -7.5850   44.0380  133.8070 C   0  0  0  0  0  0  0  0  0  0  0  0
   -7.9580   42.9080  134.4690 C   0  0  0  0  0  0  0  0  0  0  0  0
   -8.8620   42.0050  133.8770 C   0  0  0  0  0  0  0  0  0  0  0  0
  -10.7330   41.7370  130.7630 C   0  0  0  0  0  0  0  0  0  0  0  0
  -10.2600   41.4530  131.9860 C   0  0  0  0  0  0  0  0  0  0  0  0
   -9.3690   42.3070  132.6210 C   0  0  0  0  0  0  0  0  0  0  0  0
   -8.9560   43.4620  131.9900 C   0  0  0  0  0  0  0  0  0  0  0  0
   -9.4340   43.7740  130.7450 C   0  0  0  0  0  0  0  0  0  0  0  0
  -10.3030   42.9000  130.1150 C   0  0  0  0  0  0  0  0  0  0  0  0
   -8.9670   44.9490  130.1750 O   0  0  0  0  0  0  0  0  0  0  0  0
   -9.1140   45.1240  128.7930 C   0  0  0  0  0  0  0  0  0  0  0  0
   -8.7230   46.5450  128.4770 C   0  0  0  0  0  0  0  0  0  0  0  0
   -7.6950   45.7600  126.3930 C   0  0  0  0  0  0  0  0  0  0  0  0
   -8.1880   44.3800  126.7750 C   0  0  0  0  0  0  0  0  0  0  0  0
   -8.2400   44.2170  128.1700 O   0  0  0  0  0  0  0  0  0  0  0  0
   -7.3260   43.2400  126.1720 C   0  0  0  0  0  0  0  0  0  0  0  0
   -6.0790   43.1070  126.8530 O   0  0  0  0  0  0  0  0  0  0  0  0
   -6.3880   46.0370  126.8730 O   0  0  0  0  0  0  0  0  0  0  0  0
   -8.2590   48.1350  126.7260 O   0  0  0  0  0  0  0  0  0  0  0  0
   -9.6830   47.4320  129.0790 O   0  0  0  0  0  0  0  0  0  0  0  0
   -8.0750   44.3280  132.5580 N   0  0  0  0  0  0  0  0  0  0  0  0
 17 18  1  0
 17 15  1  0
 14 15  1  0
 14 19  1  0
 14  1  1  0
 15 16  1  0
 20  1  1  0
  1 13  1  0
 16 12  1  0
 13 12  1  0
 13 21  1  0
 12 11  1  0
 10  5  2  0
 10  9  1  0
 11  9  1  0
  5  6  1  0
  9  8  2  0
  6  7  2  0
  8  7  1  0
  8 22  1  0
  7  4  1  0
 22  2  2  0
  4  3  2  0
  2  3  1  0
M  END
$$$$
