
     RDKit          3D

  3  2  0  0  0  0  0  0  0  0999 V2000
   -1.0630   -2.3380    1.8660 N   0  0  0  0  0  0  0  0  0  0  0  0
   -0.0040   -2.3660    1.4860 C   0  0  0  0  0  0  0  0  0  0  0  0
    1.4230   -2.3900    0.9700 C   0  0  0  0  0  0  0  0  0  0  0  0
  1  2  3  0
  2  3  1  0
M  END
$$$$
