
     RDKit          3D

  5  4  0  0  0  0  0  0  0  0999 V2000
   -3.5180   -6.2380    9.5180 S   0  0  0  0  0  0  0  0  0  0  0  0
   -3.0330   -4.9640    8.9270 O   0  0  0  0  0  0  0  0  0  0  0  0
   -2.8130   -7.4170    8.9920 O   0  0  0  0  0  0  0  0  0  0  0  0
   -3.3660   -6.2570   10.9820 O   0  0  0  0  0  0  0  0  0  0  0  0
   -4.9740   -6.3310    9.4050 O   0  0  0  0  0  0  0  0  0  0  0  0
  1  2  2  0
  1  3  2  0
  1  4  1  0
  1  5  1  0
M  CHG  2   4  -1   5  -1
M  END
$$$$
