
 OpenBabel05082611183D

 40 43  0  0  0  0  0  0  0  0999 V2000
   -6.6390   14.3210  -14.9330 B   0  0  0  0  0  0  0  0  0  0  0  0
  -10.3960   18.4490  -18.6620 C   0  0  0  0  0  0  0  0  0  0  0  0
  -12.5200   18.2170  -17.6130 C   0  0  0  0  0  0  0  0  0  0  0  0
  -13.6580   19.0860  -18.1350 C   0  0  2  0  0  0  0  0  0  0  0  0
  -14.0650   20.2320  -17.0900 C   0  0  2  0  0  0  0  0  0  0  0  0
  -14.4540   22.3940  -18.1630 C   0  0  0  0  0  0  0  0  0  0  0  0
  -15.3390   24.4610  -19.1280 C   0  0  1  0  0  0  0  0  0  0  0  0
  -16.0190   24.7440  -20.4670 C   0  0  0  0  0  0  0  0  0  0  0  0
  -17.6590   25.2260  -18.9020 C   0  0  1  0  0  0  0  0  0  0  0  0
  -16.2860   25.2370  -18.1740 C   0  0  1  0  0  0  0  0  0  0  0  0
  -16.6080   24.5480  -16.8490 C   0  0  0  0  0  0  0  0  0  0  0  0
  -17.8900   23.6970  -17.1310 C   0  0  0  0  0  0  0  0  0  0  0  0
  -14.7110   19.7270  -15.7620 C   0  0  0  0  0  0  0  0  0  0  0  0
  -15.1340   20.8720  -14.8970 C   0  0  0  0  0  0  0  0  0  0  0  0
  -14.1580   21.6160  -14.1920 C   0  0  0  0  0  0  0  0  0  0  0  0
  -14.5130   22.7210  -13.3950 C   0  0  0  0  0  0  0  0  0  0  0  0
  -15.8470   23.1390  -13.2860 C   0  0  0  0  0  0  0  0  0  0  0  0
  -16.8320   22.4160  -13.9790 C   0  0  0  0  0  0  0  0  0  0  0  0
  -16.4740   21.3050  -14.7770 C   0  0  0  0  0  0  0  0  0  0  0  0
   -9.4720   17.7510  -15.7020 C   0  0  0  0  0  0  0  0  0  0  0  0
   -9.9230   16.5200  -15.1860 C   0  0  0  0  0  0  0  0  0  0  0  0
   -9.0530   15.4330  -14.9270 C   0  0  0  0  0  0  0  0  0  0  0  0
   -7.6570   15.4960  -15.2010 C   0  0  0  0  0  0  0  0  0  0  0  0
   -7.2280   16.7190  -15.7310 C   0  0  0  0  0  0  0  0  0  0  0  0
   -8.0920   17.7720  -15.9660 C   0  0  0  0  0  0  0  0  0  0  0  0
  -10.6310   19.1420  -20.0220 C   0  0  0  0  0  0  0  0  0  0  0  0
  -10.6100   20.6440  -19.8710 C   0  0  0  0  0  0  0  0  0  0  0  0
   -9.5430   18.7220  -21.0070 C   0  0  0  0  0  0  0  0  0  0  0  0
  -11.2590   18.8020  -17.5570 N   0  0  0  0  0  0  0  0  0  0  0  0
  -14.8820   21.1800  -17.7130 N   0  0  0  0  0  0  0  0  0  0  0  0
  -13.3460   22.9010  -18.0070 O   0  0  0  0  0  0  0  0  0  0  0  0
  -15.4250   23.0980  -18.8400 O   0  0  0  0  0  0  0  0  0  0  0  0
  -17.4230   24.6640  -20.1980 O   0  0  0  0  0  0  0  0  0  0  0  0
  -18.5680   24.3280  -18.2310 O   0  0  0  0  0  0  0  0  0  0  0  0
  -14.7170   18.1950  -18.4030 O   0  0  0  0  0  0  0  0  0  0  0  0
  -11.5600   19.2460  -15.0750 O   0  0  0  0  0  0  0  0  0  0  0  0
   -9.7400   20.3290  -16.2100 O   0  0  0  0  0  0  0  0  0  0  0  0
   -6.9820   13.1670  -14.3000 O   0  0  0  0  0  0  0  0  0  0  0  0
   -5.3330   14.4650  -15.3420 O   0  0  0  0  0  0  0  0  0  0  0  0
  -10.5450   19.1730  -16.0750 S   0  0  0  0  0  0  0  0  0  0  0  0
  1 23  1  0  0  0  0
  1 38  1  0  0  0  0
  2 26  1  0  0  0  0
  3  4  1  0  0  0  0
  4 35  1  1  0  0  0
  5 13  1  1  0  0  0
  5 30  1  0  0  0  0
  5  4  1  0  0  0  0
  6 32  1  0  0  0  0
  7 32  1  1  0  0  0
  7  8  1  0  0  0  0
  9 34  1  1  0  0  0
  9 33  1  0  0  0  0
 10 11  1  1  0  0  0
 10  9  1  0  0  0  0
 10  7  1  0  0  0  0
 11 12  1  0  0  0  0
 12 34  1  0  0  0  0
 14 13  1  0  0  0  0
 15 14  2  0  0  0  0
 16 15  1  0  0  0  0
 17 16  2  0  0  0  0
 17 18  1  0  0  0  0
 18 19  2  0  0  0  0
 19 14  1  0  0  0  0
 20 21  2  0  0  0  0
 20 40  1  0  0  0  0
 22 21  1  0  0  0  0
 23 22  2  0  0  0  0
 24 25  2  0  0  0  0
 24 23  1  0  0  0  0
 25 20  1  0  0  0  0
 26 28  1  0  0  0  0
 27 26  1  0  0  0  0
 29  3  1  0  0  0  0
 29  2  1  0  0  0  0
 30  6  1  0  0  0  0
 31  6  2  0  0  0  0
 33  8  1  0  0  0  0
 36 40  2  0  0  0  0
 39  1  2  0  0  0  0
 40 37  2  0  0  0  0
 40 29  1  0  0  0  0
M  END
$$$$
