
 OpenBabel05162623093D

 79 89  0  0  0  0  0  0  0  0999 V2000
    5.5150    6.4370  -26.4580 O   0  0  0  0  0  0  0  0  0  0  0  0
    6.6050    7.3500  -26.4280 C   0  0  0  0  0  0  0  0  0  0  0  0
    6.4090    8.3840  -25.3340 C   0  0  1  0  0  0  0  0  0  0  0  0
    5.1380    9.0660  -25.5260 O   0  0  0  0  0  0  0  0  0  0  0  0
    6.2980    7.8160  -23.9340 C   0  0  1  0  0  0  0  0  0  0  0  0
    7.5870    7.5430  -23.4060 O   0  0  0  0  0  0  0  0  0  0  0  0
    5.6290    8.9720  -23.2120 C   0  0  0  0  0  0  0  0  0  0  0  0
    4.6030    9.3980  -24.2530 C   0  0  2  0  0  0  0  0  0  0  0  0
    3.2830    8.7360  -24.1050 N   0  0  0  0  0  0  0  0  0  0  0  0
    2.4220    9.1710  -23.1070 C   0  0  0  0  0  0  0  0  0  0  0  0
    2.7960   10.0700  -22.3480 O   0  0  0  0  0  0  0  0  0  0  0  0
    1.2000    8.6100  -23.0070 N   0  0  0  0  0  0  0  0  0  0  0  0
    0.8390    7.6280  -23.8340 C   0  0  0  0  0  0  0  0  0  0  0  0
   -0.3860    7.0970  -23.6820 N   0  0  0  0  0  0  0  0  0  0  0  0
    1.7050    7.1700  -24.8730 C   0  0  0  0  0  0  0  0  0  0  0  0
    2.9080    7.7480  -24.9680 C   0  0  0  0  0  0  0  0  0  0  0  0
    7.7870    6.3810  -22.3170 P   0  0  2  0  0  0  0  0  0  0  0  0
    9.2420    6.3110  -22.0680 O   0  0  0  0  0  0  0  0  0  0  0  0
    7.0880    5.1580  -22.7820 O   0  0  0  0  0  0  0  0  0  0  0  0
    7.0250    6.9090  -21.0260 O   0  0  0  0  0  0  0  0  0  0  0  0
    7.5580    7.9900  -20.2630 C   0  0  0  0  0  0  0  0  0  0  0  0
    6.5620    8.4590  -19.2190 C   0  0  1  0  0  0  0  0  0  0  0  0
    5.3280    8.8660  -19.8660 O   0  0  0  0  0  0  0  0  0  0  0  0
    6.1290    7.4060  -18.2130 C   0  0  1  0  0  0  0  0  0  0  0  0
    7.0790    7.3250  -17.1710 O   0  0  0  0  0  0  0  0  0  0  0  0
    4.8170    8.0110  -17.7240 C   0  0  0  0  0  0  0  0  0  0  0  0
    4.2310    8.5440  -19.0150 C   0  0  2  0  0  0  0  0  0  0  0  0
    3.3690    7.5830  -19.6950 N   0  0  0  0  0  0  0  0  0  0  0  0
    3.6640    6.8330  -20.8070 C   0  0  0  0  0  0  0  0  0  0  0  0
    2.6790    6.0670  -21.1890 N   0  0  0  0  0  0  0  0  0  0  0  0
    1.6570    6.3460  -20.2830 C   0  0  0  0  0  0  0  0  0  0  0  0
    0.3340    5.8210  -20.1940 C   0  0  0  0  0  0  0  0  0  0  0  0
   -0.2150    5.0020  -20.9380 O   0  0  0  0  0  0  0  0  0  0  0  0
   -0.3740    6.3790  -19.1250 N   0  0  0  0  0  0  0  0  0  0  0  0
    0.1350    7.3010  -18.2480 C   0  0  0  0  0  0  0  0  0  0  0  0
   -0.6820    7.7190  -17.2700 N   0  0  0  0  0  0  0  0  0  0  0  0
    1.3750    7.7800  -18.3130 N   0  0  0  0  0  0  0  0  0  0  0  0
    2.0650    7.2720  -19.3610 C   0  0  0  0  0  0  0  0  0  0  0  0
    7.1740    5.9790  -16.2780 P   0  0  2  0  0  0  0  0  0  0  0  0
    8.2760    6.2100  -15.3080 O   0  0  0  0  0  0  0  0  0  0  0  0
    7.1420    4.7760  -17.1180 O   0  0  0  0  0  0  0  0  0  0  0  0
    5.7540    5.9380  -15.4920 O   0  0  0  0  0  0  0  0  0  0  0  0
    5.4350    6.9380  -14.5740 C   0  0  0  0  0  0  0  0  0  0  0  0
    4.0190    6.7270  -14.0970 C   0  0  1  0  0  0  0  0  0  0  0  0
    3.1020    6.8470  -15.1970 O   0  0  1  0  0  0  0  0  0  0  0  0
    3.7740    5.3550  -13.5930 C   0  0  1  0  0  0  0  0  0  0  0  0
    4.2460    5.2990  -12.3170 O   0  0  0  0  0  0  0  0  0  0  0  0
    2.2540    5.2890  -13.6520 C   0  0  0  0  0  0  0  0  0  0  0  0
    2.0090    5.9510  -14.9870 C   0  0  2  0  0  0  0  0  0  0  0  0
    1.9220    4.9980  -16.1140 N   0  0  0  0  0  0  0  0  0  0  0  0
    0.7190    4.3860  -16.3490 C   0  0  0  0  0  0  0  0  0  0  0  0
   -0.2540    4.5780  -15.6590 O   0  0  0  0  0  0  0  0  0  0  0  0
    0.7060    3.5540  -17.4320 N   0  0  0  0  0  0  0  0  0  0  0  0
    1.7630    3.2600  -18.2690 C   0  0  0  0  0  0  0  0  0  0  0  0
    1.6550    2.4950  -19.2280 O   0  0  0  0  0  0  0  0  0  0  0  0
    3.0030    3.9360  -17.9680 C   0  0  0  0  0  0  0  0  0  0  0  0
    4.2170    3.7010  -18.8120 C   0  0  0  0  0  0  0  0  0  0  0  0
    3.0230    4.7680  -16.9180 C   0  0  0  0  0  0  0  0  0  0  0  0
    5.7810    5.4000  -11.9180 P   0  0  1  0  0  0  0  0  0  0  0  0
    6.4830    4.3620  -12.6690 O   0  0  0  0  0  0  0  0  0  0  0  0
    6.0170    5.4530  -10.4330 O   0  0  0  0  0  0  0  0  0  0  0  0
    5.4110    6.7970  -12.6520 O   0  0  0  0  0  0  0  0  0  0  0  0
    4.7010    8.0350  -12.4800 C   0  0  0  0  0  0  0  0  0  0  0  0
    4.0250    8.3370  -13.8780 C   0  0  1  0  0  0  0  0  0  0  0  0
    2.8010    7.6480  -14.1610 O   0  0  0  0  0  0  0  0  0  0  0  0
    3.6700    9.7820  -14.3450 C   0  0  1  0  0  0  0  0  0  0  0  0
    3.9320   10.0970  -15.7090 O   0  0  0  0  0  0  0  0  0  0  0  0
    2.5780    9.4960  -15.3730 C   0  0  0  0  0  0  0  0  0  0  0  0
    2.9230    8.0130  -15.5130 C   0  0  1  0  0  0  0  0  0  0  0  0
    2.7400    6.9770  -16.5690 N   0  0  0  0  0  0  0  0  0  0  0  0
    3.8710    6.5250  -17.2570 C   0  0  0  0  0  0  0  0  0  0  0  0
    3.6670    5.6540  -18.1950 N   0  0  0  0  0  0  0  0  0  0  0  0
    2.3190    5.5140  -18.1630 C   0  0  0  0  0  0  0  0  0  0  0  0
    1.5710    4.7060  -19.0040 C   0  0  0  0  0  0  0  0  0  0  0  0
    2.0400    3.9260  -20.0030 N   0  0  0  0  0  0  0  0  0  0  0  0
    0.2440    4.7600  -18.7760 N   0  0  0  0  0  0  0  0  0  0  0  0
   -0.2850    5.5290  -17.8230 C   0  0  0  0  0  0  0  0  0  0  0  0
    0.3910    6.3340  -16.9820 N   0  0  0  0  0  0  0  0  0  0  0  0
    1.7200    6.2940  -17.1920 C   0  0  0  0  0  0  0  0  0  0  0  0
  1  2  1  0  0  0  0
  3  2  1  6  0  0  0
  3  4  1  0  0  0  0
  3  5  1  0  0  0  0
  4  8  1  0  0  0  0
  5  6  1  1  0  0  0
  5  7  1  0  0  0  0
  6 17  1  0  0  0  0
  8  7  1  1  0  0  0
  8  9  1  0  0  0  0
  9 10  1  0  0  0  0
  9 16  1  0  0  0  0
 10 11  2  0  0  0  0
 10 12  1  0  0  0  0
 12 13  2  0  0  0  0
 13 14  1  0  0  0  0
 13 15  1  0  0  0  0
 15 16  2  0  0  0  0
 17 18  2  1  0  0  0
 17 19  1  0  0  0  0
 17 20  1  0  0  0  0
 20 21  1  0  0  0  0
 22 21  1  6  0  0  0
 22 23  1  0  0  0  0
 22 24  1  0  0  0  0
 23 27  1  0  0  0  0
 24 25  1  0  0  0  0
 24 26  1  1  0  0  0
 25 39  1  0  0  0  0
 27 26  1  1  0  0  0
 27 28  1  0  0  0  0
 28 29  1  0  0  0  0
 28 38  1  0  0  0  0
 29 30  2  0  0  0  0
 30 31  1  0  0  0  0
 31 32  1  0  0  0  0
 31 38  2  0  0  0  0
 32 33  2  0  0  0  0
 32 34  1  0  0  0  0
 34 35  1  0  0  0  0
 34 77  1  0  0  0  0
 35 36  1  0  0  0  0
 35 37  2  0  0  0  0
 37 38  1  0  0  0  0
 39 40  2  1  0  0  0
 39 41  1  0  0  0  0
 39 42  1  0  0  0  0
 42 43  1  0  0  0  0
 44 43  1  6  0  0  0
 44 45  1  0  0  0  0
 44 46  1  0  0  0  0
 45 49  1  0  0  0  0
 45 69  1  0  0  0  0
 46 47  1  0  0  0  0
 46 48  1  0  0  0  0
 48 49  1  0  0  0  0
 49 50  1  0  0  0  0
 50 51  1  0  0  0  0
 50 58  1  0  0  0  0
 51 52  2  0  0  0  0
 51 53  1  0  0  0  0
 53 54  1  0  0  0  0
 54 55  2  0  0  0  0
 54 56  1  0  0  0  0
 56 57  1  0  0  0  0
 56 58  2  0  0  0  0
 59 60  2  0  0  0  0
 59 61  1  0  0  0  0
 59 62  1  0  0  0  0
 62 63  1  0  0  0  0
 63 64  1  0  0  0  0
 64 65  1  0  0  0  0
 64 66  1  0  0  0  0
 65 69  1  0  0  0  0
 66 67  1  0  0  0  0
 66 68  1  0  0  0  0
 68 69  1  0  0  0  0
 69 70  1  0  0  0  0
 70 71  1  0  0  0  0
 70 79  1  0  0  0  0
 71 72  2  0  0  0  0
 72 73  1  0  0  0  0
 73 74  1  0  0  0  0
 73 79  2  0  0  0  0
 74 75  1  0  0  0  0
 74 76  2  0  0  0  0
 76 77  1  0  0  0  0
 77 78  2  0  0  0  0
 78 79  1  0  0  0  0
M  END
$$$$
